Info: SIMULATION PARAMETERS:
Info: TIMESTEP               2
Info: NUMBER OF STEPS        0
Info: STEPS PER CYCLE        12
Info: PERIODIC CELL BASIS 1  124.344 0 0
Info: PERIODIC CELL BASIS 2  0 125.46 0
Info: PERIODIC CELL BASIS 3  0 0 107.873
Info: PERIODIC CELL CENTER   -0.389 0.194 1.795
Info: WRAPPING ALL CLUSTERS AROUND PERIODIC BOUNDARIES ON OUTPUT.
Info: FIRST LDB TIMESTEP     60
Info: LAST LDB TIMESTEP     -1
Info: HOM BACKGROUND SCALING 1
Info: PME BACKGROUND SCALING 1
Info: REMOVING PATCHES FROM PROCESSOR 0
Info: MIN ATOMS PER PATCH    40
Info: VELOCITY FILE          /global/u1/j/jmedina/Pathrover/2jln/phase2b/dat_phase2b3.vel
Info: CENTER OF MASS MOVING INITIALLY? NO
Info: DIELECTRIC             1
Info: EXCLUDE                SCALED ONE-FOUR
Info: 1-4 ELECTROSTATICS SCALED BY 1
Info: MODIFIED 1-4 VDW PARAMETERS WILL BE USED
Info: DCD FILENAME           ./dat_phase3_10.dcd
Info: DCD FREQUENCY          10000
Info: DCD FIRST STEP         10000
Info: DCD FILE WILL CONTAIN UNIT CELL DATA
Info: XST FILENAME           ./dat_phase3_10.xst
Info: XST FREQUENCY          10000
Info: NO VELOCITY DCD OUTPUT
Info: NO FORCE DCD OUTPUT
Info: OUTPUT FILENAME        ./dat_phase3_10
Info: RESTART FILENAME       ./dat_phase3_10.restart
Info: RESTART FREQUENCY      10000
Info: BINARY RESTART FILES WILL BE USED
Info: SWITCHING ACTIVE
Info: SWITCHING ON           10
Info: SWITCHING OFF          12
Info: PAIRLIST DISTANCE      13.5
Info: PAIRLIST SHRINK RATE   0.01
Info: PAIRLIST GROW RATE     0.01
Info: PAIRLIST TRIGGER       0.3
Info: PAIRLISTS PER CYCLE    2
Info: PAIRLISTS ENABLED
Info: MARGIN                 1.5
Info: HYDROGEN GROUP CUTOFF  2.5
Info: PATCH DIMENSION        17.5
Info: ENERGY OUTPUT STEPS    30000
Info: CROSSTERM ENERGY INCLUDED IN DIHEDRAL
Info: TIMING OUTPUT STEPS    10000
Info: PRESSURE OUTPUT STEPS  10000
Info: LANGEVIN DYNAMICS ACTIVE
Info: LANGEVIN TEMPERATURE   310
Info: LANGEVIN DAMPING COEFFICIENT IS 5 INVERSE PS
Info: LANGEVIN DYNAMICS NOT APPLIED TO HYDROGENS
Info: LANGEVIN PISTON PRESSURE CONTROL ACTIVE
Info:        TARGET PRESSURE IS 1.01325 BAR
Info:     OSCILLATION PERIOD IS 200 FS
Info:             DECAY TIME IS 50 FS
Info:     PISTON TEMPERATURE IS 310 K
Info:       PRESSURE CONTROL IS GROUP-BASED
Info:    INITIAL STRAIN RATE IS 2.69025e-05 2.69025e-05 -1.84859e-05
Info:       CELL FLUCTUATION IS ANISOTROPIC
Info:     SHAPE OF CELL IS CONSTRAINED IN X-Y PLANE
Info: PARTICLE MESH EWALD (PME) ACTIVE
Info: PME TOLERANCE               1e-06
Info: PME EWALD COEFFICIENT       0.257952
Info: PME INTERPOLATION ORDER     4
Info: PME GRID DIMENSIONS         128 128 108
Info: PME MAXIMUM GRID SPACING    1
Info: FULL ELECTROSTATIC EVALUATION FREQUENCY      3
Info: USING VERLET I (r-RESPA) MTS SCHEME.
Info: C1 SPLITTING OF LONG RANGE ELECTROSTATICS
Info: PLACING ATOMS IN PATCHES BY HYDROGEN GROUPS
Info: RIGID BONDS TO HYDROGEN : ALL
Info:         ERROR TOLERANCE : 1e-08
Info:          MAX ITERATIONS : 100
Info: RIGID WATER USING SETTLE ALGORITHM
Info: RANDOM NUMBER SEED     1403326188
Info: USE HYDROGEN BONDS?    NO
Info: COORDINATE PDB         /global/u1/j/jmedina/Pathrover/2jln/phase2b/dat_phase2b3.coor
Info: STRUCTURE FILE         /global/u1/j/jmedina/Pathrover/2jln/common/ionized.psf
Info: PARAMETER file: CHARMM format!
Info: PARAMETERS             /global/u1/j/jmedina/Pathrover/2jln/common/parameters_all.prm
Info: USING ARITHMETIC MEAN TO COMBINE L-J SIGMA PARAMETERS
Info: BINARY COORDINATES     /global/u1/j/jmedina/Pathrover/2jln/phase3/dat_phase3_9.restart.coor
Info: SUMMARY OF PARAMETERS:
Info: 231 BONDS
Info: 615 ANGLES
Info: 936 DIHEDRAL
Info: 55 IMPROPER
Info: 6 CROSSTERM
Info: 152 VDW
Info: 0 VDW_PAIRS
Info: 0 NBTHOLE_PAIRS
Info: STRUCTURE SUMMARY:
Info: 172765 ATOMS
Info: 137441 BONDS
Info: 163935 ANGLES
Info: 179819 DIHEDRALS
Info: 2052 IMPROPERS
Info: 0 CROSSTERMS
Info: 0 EXCLUSIONS
Info: 145106 RIGID BONDS
Info: 373189 DEGREES OF FREEDOM
Info: 62497 HYDROGEN GROUPS
Info: 4 ATOMS IN LARGEST HYDROGEN GROUP
Info: 62497 MIGRATION GROUPS
Info: 4 ATOMS IN LARGEST MIGRATION GROUP
Info: TOTAL MASS = 1.03211e+06 amu
Info: TOTAL CHARGE = 4.77266e-05 e
Info: MASS DENSITY = 1.01846 g/cm^3
Info: ATOM DENSITY = 0.102663 atoms/A^3
Info: REMOVING COM VELOCITY -0.0155177 -0.0137571 -0.0128811
Info: NONBONDED TABLE R-SQUARED SPACING: 0.0625
Info: NONBONDED TABLE SIZE: 769 POINTS
TCL: Running for 10200000 steps
ETITLE: TS BOND ANGLE DIHED IMPRP ELECT VDW BOUNDARY MISC KINETIC TOTAL TEMP POTENTIAL TOTAL3 TEMPAVG PRESSURE GPRESSURE VOLUME PRESSAVG GPRESSAVG
ENERGY: 0 8151.0282 41600.5518 27456.9655 515.0902 -442889.9423 12040.8542 0.0000 0.0000 91010.6041 -262114.8484 245.4446 -353125.4525 -261372.5424 245.4446 93.8153 124.6170 1682840.1847 93.8153 124.6170
ENERGY: 990000 8122.0116 41357.4971 27498.8243 522.4074 -442757.1305 11822.0572 0.0000 0.0000 114506.8646 -238927.4684 308.8112 -353434.3330 -238187.0754 309.2755 14.0961 54.3880 1678926.4567 1.0086 0.9991
ENERGY: 1980000 8137.1450 41082.3729 27510.1903 526.4055 -442296.8291 11494.7342 0.0000 0.0000 114385.7960 -239160.1853 308.4847 -353545.9813 -238458.7130 309.2683 67.8920 96.7039 1680989.6487 1.5439 1.5502
ENERGY: 2940000 8221.0302 41291.9710 27497.5534 536.4385 -442345.6698 11478.5984 0.0000 0.0000 114755.0262 -238565.0520 309.4805 -353320.0782 -237819.5252 309.3089 -193.6510 -153.1727 1685812.1585 0.4899 0.4522
ENERGY: 3930000 8135.2579 41129.6711 27541.1953 512.8698 -442487.2732 12173.7358 0.0000 0.0000 114960.1896 -238034.3537 310.0338 -352994.5433 -237309.8757 309.3726 270.0802 302.1073 1681688.7938 1.8571 1.8424
ENERGY: 4920000 8314.3883 41163.3493 27487.3930 492.6372 -443160.4990 12222.7234 0.0000 0.0000 114354.1790 -239125.8287 308.3994 -353480.0078 -238409.7851 309.2665 -65.9830 -32.5457 1682589.8814 0.2887 0.2985
