Info: SIMULATION PARAMETERS:
Info: TIMESTEP               1
Info: NUMBER OF STEPS        0
Info: STEPS PER CYCLE        20
Info: PERIODIC CELL BASIS 1  161.616 0 0
Info: PERIODIC CELL BASIS 2  0 163.599 0
Info: PERIODIC CELL BASIS 3  0 0 90.0764
Info: PERIODIC CELL CENTER   39.757 40.344 2.181
Info: WRAPPING ALL CLUSTERS AROUND PERIODIC BOUNDARIES ON OUTPUT.
Info: FIRST LDB TIMESTEP     100
Info: LAST LDB TIMESTEP     -1
Info: HOM BACKGROUND SCALING 1
Info: PME BACKGROUND SCALING 1
Info: REMOVING PATCHES FROM PROCESSOR 0
Info: MIN ATOMS PER PATCH    40
Info: VELOCITY FILE          ../phase1/dat_phase1.vel
Info: CENTER OF MASS MOVING INITIALLY? NO
Info: DIELECTRIC             1
Info: EXCLUDE                SCALED ONE-FOUR
Info: 1-4 ELECTROSTATICS SCALED BY 1
Info: MODIFIED 1-4 VDW PARAMETERS WILL BE USED
Info: DCD FILENAME           ./dat_phase1b2.dcd
Info: DCD FREQUENCY          2000
Info: DCD FIRST STEP         2000
Info: DCD FILE WILL CONTAIN UNIT CELL DATA
Info: XST FILENAME           ./dat_phase1b2.xst
Info: XST FREQUENCY          2000
Info: NO VELOCITY DCD OUTPUT
Info: NO FORCE DCD OUTPUT
Info: OUTPUT FILENAME        ./dat_phase1b2
Info: RESTART FILENAME       ./dat_phase1b2.restart
Info: RESTART FREQUENCY      2000
Info: BINARY RESTART FILES WILL BE USED
Info: SWITCHING ACTIVE
Info: SWITCHING ON           10
Info: SWITCHING OFF          12
Info: PAIRLIST DISTANCE      13.5
Info: PAIRLIST SHRINK RATE   0.01
Info: PAIRLIST GROW RATE     0.01
Info: PAIRLIST TRIGGER       0.3
Info: PAIRLISTS PER CYCLE    2
Info: PAIRLISTS ENABLED
Info: MARGIN                 2.5
Info: HYDROGEN GROUP CUTOFF  2.5
Info: PATCH DIMENSION        18.5
Info: ENERGY OUTPUT STEPS    2000
Info: CROSSTERM ENERGY INCLUDED IN DIHEDRAL
Info: TIMING OUTPUT STEPS    2000
Info: PRESSURE OUTPUT STEPS  2000
Info: FIXED ATOMS ACTIVE
Info: HARMONIC CONSTRAINTS ACTIVE
Info: HARMONIC CONS EXP      2
Info: SELECTED CARTESIAN COMPONENTS OF HARMONIC RESTRAINTS ACTIVE
Info: RESTRAINING Z-COMPONENTS OF CARTESIAN COORDINATES!
Info: TCL GLOBAL FORCES ACTIVE
Info: TCL GLOBAL FORCES SCRIPT   ../common/equil_phase1b_keep_water_out.tcl
Info: LANGEVIN DYNAMICS ACTIVE
Info: LANGEVIN TEMPERATURE   310
Info: LANGEVIN DAMPING COEFFICIENT IS 5 INVERSE PS
Info: LANGEVIN DYNAMICS NOT APPLIED TO HYDROGENS
Info: LANGEVIN PISTON PRESSURE CONTROL ACTIVE
Info:        TARGET PRESSURE IS 1.01325 BAR
Info:     OSCILLATION PERIOD IS 200 FS
Info:             DECAY TIME IS 50 FS
Info:     PISTON TEMPERATURE IS 310 K
Info:       PRESSURE CONTROL IS GROUP-BASED
Info:    INITIAL STRAIN RATE IS 7.83802e-06 7.83802e-06 -1.38321e-05
Info:       CELL FLUCTUATION IS ANISOTROPIC
Info:     SHAPE OF CELL IS CONSTRAINED IN X-Y PLANE
Info: PARTICLE MESH EWALD (PME) ACTIVE
Info: PME TOLERANCE               1e-06
Info: PME EWALD COEFFICIENT       0.257952
Info: PME INTERPOLATION ORDER     4
Info: PME GRID DIMENSIONS         144 144 144
Info: PME MAXIMUM GRID SPACING    1.5
Info: FULL ELECTROSTATIC EVALUATION FREQUENCY      4
Info: USING VERLET I (r-RESPA) MTS SCHEME.
Info: C1 SPLITTING OF LONG RANGE ELECTROSTATICS
Info: PLACING ATOMS IN PATCHES BY HYDROGEN GROUPS
Info: RIGID BONDS TO HYDROGEN : ALL
Info:         ERROR TOLERANCE : 1e-08
Info:          MAX ITERATIONS : 100
Info: RIGID WATER USING SETTLE ALGORITHM
Info: NONBONDED FORCES EVALUATED EVERY 2 STEPS
Info: RANDOM NUMBER SEED     815234958
Info: USE HYDROGEN BONDS?    NO
Info: COORDINATE PDB         ../phase1/dat_phase1.coor
Info: STRUCTURE FILE         ../common/ionized.psf
Info: PARAMETER file: CHARMM format!
Info: PARAMETERS             ../common/parameters_all.prm
Info: PARAMETERS             ../common/BHY_hyd_mod.prm
Info: USING ARITHMETIC MEAN TO COMBINE L-J SIGMA PARAMETERS
Info: BINARY COORDINATES     ../phase1b/dat_phase1b.restart.coor
Info: SUMMARY OF PARAMETERS:
Info: 242 BONDS
Info: 636 ANGLES
Info: 971 DIHEDRAL
Info: 55 IMPROPER
Info: 6 CROSSTERM
Info: 162 VDW
Info: 0 VDW_PAIRS
Info: 0 NBTHOLE_PAIRS
Info: STRUCTURE SUMMARY:
Info: 173276 ATOMS
Info: 137708 BONDS
Info: 163745 ANGLES
Info: 179218 DIHEDRALS
Info: 2048 IMPROPERS
Info: 0 CROSSTERMS
Info: 0 EXCLUSIONS
Info: 9870 CONSTRAINTS
Info: 1846 FIXED ATOMS
Info: 145702 RIGID BONDS
Info: 0 RIGID BONDS BETWEEN FIXED ATOMS
Info: 368588 DEGREES OF FREEDOM
Info: 62658 HYDROGEN GROUPS
Info: 4 ATOMS IN LARGEST HYDROGEN GROUP
Info: 62658 MIGRATION GROUPS
Info: 4 ATOMS IN LARGEST MIGRATION GROUP
Info: 946 HYDROGEN GROUPS WITH ALL ATOMS FIXED
Info: TOTAL MASS = 1.03531e+06 amu
Info: TOTAL CHARGE = 4.75738e-05 e
Info: MASS DENSITY = 0.721858 g/cm^3
Info: ATOM DENSITY = 0.0727549 atoms/A^3
Info: REMOVING COM VELOCITY -0.00608457 0.018613 -9.71095e-05
Info: NONBONDED TABLE R-SQUARED SPACING: 0.0625
Info: NONBONDED TABLE SIZE: 769 POINTS
TCL: Starting Tcl forces
TCL: Starting calcforces...
TCL: Minimizing for 4000 steps
TCL: membrane dimensions at step 0: {17.0800730804 -17.0583847902}
TCL: Waters to push Up:   69514 69958 71338 72484 76327 78400 79474 80080 83890 85087 85264 85750 87037 88255 91774 92713 93136 93454 97348 98509 99949 103048 103591 104035 107326 108265 111970 115900 116347 116467 119221 120886 120889 122683 123724 126718 127981 128704 128953 129259 130957 138649 139588 140095 140233 141940 143674 144286 145822 145870 146182 148249 149035 149308 150289 154441 155563 156427 161563 162958 163807 169741 170095 171274 171415
TCL: Waters to push Down: 68020 68335 74722 75406 78079 79069 79207 79657 80125 80590 81073 81676 85636 88294 90361 91828 92236 92947 93001 93535 94774 95716 95836 97315 98476 100492 101785 106225 108022 108154 109195 109315 111889 114799 115549 116536 116746 117424 117526 118807 119248 119521 120172 120943 121246 122527 124102 124564 125536 125824 126442 126697 128914 129580 129601 130081 130657 131317 132988 133183 133939 136036 138472 139366 142294 145024 148525 149443 151276 151297 151456 151495 152200 152896 153856 158377 159430 160336 162829 167806 167848 171388 172663
TCL: Reassign waters to push at step: 0
ETITLE: TS BOND ANGLE DIHED IMPRP ELECT VDW BOUNDARY MISC KINETIC TOTAL TEMP POTENTIAL TOTAL3 TEMPAVG PRESSURE GPRESSURE VOLUME PRESSAVG GPRESSAVG
ENERGY: 0 7199.6824 39623.1499 27286.2172 347.1989 -469937.3115 15308.1091 1336.7009 0.0000 0.0000 -378836.2531 0.0000 -378836.2531 -378836.2531 0.0000 7182.8006 -2417.8422 2381639.4711 7182.8006 -2417.8422
ENERGY: 20 15279.3899 30756.3161 26810.3162 176.9746 -505690.0971 12618.2659 1329.1718 0.0000 0.0000 -418719.6627 0.0000 -418719.6627 -418719.6627 0.0000 -3692.7664 -2586.9360 2381639.4711 -3692.7664 -2586.9360
ENERGY: 40 20372.8347 30732.2088 26156.4550 154.6383 -530797.8864 7309.9160 1310.7270 0.0000 0.0000 -444761.1066 0.0000 -444761.1066 -444761.1066 0.0000 -5612.4718 -3442.2722 2381639.4711 -5612.4718 -3442.2722
ENERGY: 59 10940.1802 20958.7955 25737.2400 109.8331 -528971.4792 5787.1367 1290.3422 0.0000 0.0000 -464147.9515 0.0000 -464147.9515 -464147.9515 0.0000 -2929.0246 -4367.9743 2381639.4711 -2929.0246 -4367.9743
ENERGY: 79 13885.6586 18807.4877 25294.3953 116.0040 -541513.1420 5354.8246 1265.2125 0.0000 0.0000 -476789.5593 0.0000 -476789.5593 -476789.5593 0.0000 -3533.8817 -4227.4051 2381639.4711 -3533.8817 -4227.4051
ENERGY: 99 12864.3177 21114.2464 25024.1442 80.4520 -552550.7407 6550.2259 1245.4533 0.0000 0.0000 -485671.9012 0.0000 -485671.9012 -485671.9012 0.0000 -4615.6898 -4988.6333 2381639.4711 -4615.6898 -4988.6333
TCL: membrane dimensions at step 100: {17.0828551825 -17.0616614073}
TCL: Waters to push Up:   69514 69958 71338 72484 76327 78400 80080 85087 85750 87037 88255 91774 92713 93136 93454 97348 103048 104035 107326 111970 115900 116467 119221 120886 122683 126718 127981 128704 128953 129259 130000 130957 140095 140233 141940 143674 144286 145870 150289 152284 156427 158659 161563 162355 162958 163807 166459 169741 170095 171274 171415 171877
TCL: Waters to push Down: 68053 68335 74722 75406 78079 79069 79207 79657 80590 81073 81676 85636 88294 90361 91828 92236 92566 93001 93535 93760 95716 95836 97315 98476 100492 101785 106225 108022 108154 109195 109315 111889 113326 115261 115549 116536 116746 118807 119248 119521 120172 120943 121246 122527 124102 124564 125536 125824 126442 126697 128914 129580 129601 130081 130657 132163 132988 133183 133939 136036 138472 139366 142294 145024 149443 149776 151276 151297 151456 151495 152200 152896 153856 158377 159430 160336 163459 167848 171388 172663
TCL: Reassign waters to push at step: 100
ETITLE: TS BOND ANGLE DIHED IMPRP ELECT VDW BOUNDARY MISC KINETIC TOTAL TEMP POTENTIAL TOTAL3 TEMPAVG PRESSURE GPRESSURE VOLUME PRESSAVG GPRESSAVG
ENERGY: 100 12382.0881 20729.7548 24969.6251 90.4085 -553456.6822 6704.6756 1241.0464 0.0000 0.0000 -487339.0836 0.0000 -487339.0836 -487339.0836 0.0000 -4255.0847 -4860.3077 2381639.4711 -4255.0847 -4860.3077
ENERGY: 120 13768.4349 18091.7628 24704.4801 74.4888 -558506.7185 8172.7675 1223.7148 0.0000 0.0000 -492471.0695 0.0000 -492471.0695 -492471.0695 0.0000 -4702.1455 -4731.9030 2381639.4711 -4702.1455 -4731.9030
ENERGY: 140 13697.4885 19370.4560 24381.7256 70.3542 -567229.2729 10664.2109 1202.4449 0.0000 0.0000 -497842.5929 0.0000 -497842.5929 -497842.5929 0.0000 -4328.9149 -4643.1840 2381639.4711 -4328.9149 -4643.1840
ENERGY: 159 14576.5949 19973.1707 24233.2214 61.8056 -573250.1206 12425.4977 1193.5206 0.0000 0.0000 -500786.3098 0.0000 -500786.3098 -500786.3098 0.0000 -4698.7432 -4558.1209 2381639.4711 -4698.7432 -4558.1209
ENERGY: 179 14731.8980 18370.3562 24145.2560 63.5859 -574065.7015 12562.2190 1189.1798 0.0000 0.0000 -503003.2067 0.0000 -503003.2067 -503003.2067 0.0000 -4913.2050 -4694.0077 2381639.4711 -4913.2050 -4694.0077
ENERGY: 199 13832.6560 18087.9812 24080.8927 57.8790 -574468.8455 12565.5930 1186.5965 0.0000 0.0000 -504657.2472 0.0000 -504657.2472 -504657.2472 0.0000 -4615.5048 -4827.2783 2381639.4711 -4615.5048 -4827.2783
TCL: membrane dimensions at step 200: {17.095968434 -17.0736353534}
TCL: Waters to push Up:   69514 69958 71338 72484 76327 78400 80080 81181 87037 88789 92713 93136 93454 97348 99928 103048 104035 107326 115900 116467 119221 127981 128041 128704 129259 130000 130957 133363 134797 140095 140233 141184 141940 143674 144286 144553 145993 150289 156427 158659 161563 162958 163807 166585 169741 170095 171220 171274 171415
TCL: Waters to push Down: 68053 68335 74722 78079 79069 79207 79657 80590 81073 81676 85636 91828 92236 93001 93535 93760 95836 97315 98476 99142 100492 101785 106225 108022 108154 109315 111889 113326 115261 116536 118807 119248 120172 120943 121246 122527 124102 124564 125536 125824 126442 126697 128914 129580 129601 130081 130657 132988 133183 133939 136036 138472 139366 142294 145024 151276 151297 151456 151495 152200 152896 153856 159430 160336 163459 164701 167806 167848 172663
TCL: Reassign waters to push at step: 200
ETITLE: TS BOND ANGLE DIHED IMPRP ELECT VDW BOUNDARY MISC KINETIC TOTAL TEMP POTENTIAL TOTAL3 TEMPAVG PRESSURE GPRESSURE VOLUME PRESSAVG GPRESSAVG
ENERGY: 200 13835.1439 18088.0579 24080.9337 57.8774 -574471.3653 12565.5024 1186.5982 0.0000 0.0000 -504657.2518 0.0000 -504657.2518 -504657.2518 0.0000 -4617.3264 -4827.6363 2381639.4711 -4617.3264 -4827.6363
ENERGY: 220 14989.9529 19600.0283 23990.7357 58.7970 -579440.0532 13229.7406 1182.1227 0.0000 0.0000 -506388.6761 0.0000 -506388.6761 -506388.6761 0.0000 -4843.0124 -4707.0033 2381639.4711 -4843.0124 -4707.0033
ENERGY: 240 15393.9871 19064.2823 23882.4010 60.6306 -582048.2822 14314.6039 1177.6333 0.0000 0.0000 -508154.7440 0.0000 -508154.7440 -508154.7440 0.0000 -5202.5930 -4839.2186 2381639.4711 -5202.5930 -4839.2186
ENERGY: 259 14849.8400 18005.3882 23751.2303 59.5545 -583777.7036 15949.2795 1174.8057 0.0000 0.0000 -509987.6055 0.0000 -509987.6055 -509987.6055 0.0000 -4404.6842 -4348.9686 2381639.4711 -4404.6842 -4348.9686
ENERGY: 279 15566.3938 19105.6465 23666.6131 58.4959 -588215.3767 17529.5196 1171.9766 0.0000 0.0000 -511116.7311 0.0000 -511116.7311 -511116.7311 0.0000 -4909.6459 -4691.6815 2381639.4711 -4909.6459 -4691.6815
ENERGY: 299 15072.8626 19408.4773 23570.0795 57.1732 -591522.6234 19407.6289 1170.3476 0.0000 0.0000 -512836.0541 0.0000 -512836.0541 -512836.0541 0.0000 -4498.6727 -4489.2114 2381639.4711 -4498.6727 -4489.2114
TCL: membrane dimensions at step 300: {17.111616293 -17.0872651708}
TCL: Waters to push Up:   69958 71338 72484 76327 78400 80080 83890 85750 87037 88255 91774 92713 93454 97348 98509 99928 103048 104035 107326 111970 115900 116467 122683 127981 128704 129259 130000 130957 133786 138649 140095 140233 141940 144286 150289 156427 161563 162958 163807 169741 171220 171415
TCL: Waters to push Down: 68335 74722 78079 79207 79657 80125 80590 81073 81676 85636 92236 92566 92947 93001 93535 93760 94138 95716 95836 97315 98476 100492 101785 106225 108022 108154 109195 109315 111889 114799 116536 117526 119521 120172 120943 121246 122527 124102 124564 125536 125824 126442 126697 128914 129580 129601 130081 130657 132841 132988 133183 133939 134557 136036 138472 138541 139366 142294 145024 151276 151297 151456 151495 152200 152896 159430 160336 163459 167848 172663
TCL: Reassign waters to push at step: 300
ETITLE: TS BOND ANGLE DIHED IMPRP ELECT VDW BOUNDARY MISC KINETIC TOTAL TEMP POTENTIAL TOTAL3 TEMPAVG PRESSURE GPRESSURE VOLUME PRESSAVG GPRESSAVG
ENERGY: 300 15340.4768 19317.5770 23568.0984 56.4588 -591805.4138 19410.3773 1170.3648 0.0000 0.0000 -512942.0608 0.0000 -512942.0608 -512942.0608 0.0000 -4602.9126 -4474.2596 2381639.4711 -4602.9126 -4474.2596
ENERGY: 320 15065.0703 17907.6052 23544.4844 56.8922 -591243.0812 19497.8803 1169.8894 0.0000 0.0000 -514001.2593 0.0000 -514001.2593 -514001.2593 0.0000 -4337.5669 -4390.1710 2381639.4711 -4337.5669 -4390.1710
ENERGY: 340 15551.6749 18888.4271 23508.4893 58.9267 -594072.7196 19968.7810 1167.6733 0.0000 0.0000 -514928.7473 0.0000 -514928.7473 -514928.7473 0.0000 -4560.8386 -4410.8663 2381639.4711 -4560.8386 -4410.8663
ENERGY: 359 17558.9149 20019.9548 23462.9691 61.6420 -598274.7120 20859.9596 1166.6706 0.0000 0.0000 -515144.6010 0.0000 -515144.6010 -515144.6010 0.0000 -5163.6668 -4445.1763 2381639.4711 -5163.6668 -4445.1763
ENERGY: 379 15288.3766 18273.9821 23428.9849 55.0509 -595703.8297 20968.5713 1165.5132 0.0000 0.0000 -516523.3507 0.0000 -516523.3507 -516523.3507 0.0000 -4267.9714 -4315.8382 2381639.4711 -4267.9714 -4315.8382
ENERGY: 399 15085.5380 18445.9909 23372.3851 57.0978 -597179.0486 21709.5259 1164.1287 0.0000 0.0000 -517344.3822 0.0000 -517344.3822 -517344.3822 0.0000 -4246.9552 -4355.6250 2381639.4711 -4246.9552 -4355.6250
TCL: membrane dimensions at step 400: {17.1176022622 -17.0930812373}
TCL: Waters to push Up:   69514 69958 71338 72484 76327 78400 80080 81181 87037 88789 92713 93454 97348 99928 103048 107326 115900 116467 119221 120889 126589 127981 128041 128704 129259 130000 130957 133363 134797 140095 140233 141940 144286 144553 145993 150289 156427 158659 161563 162958 163807 166585 169741 170134 171220 171415 172429
TCL: Waters to push Down: 68053 68335 74722 78079 79069 79207 79657 80590 81073 81676 85636 91828 92236 93001 93535 93760 95836 97315 98476 100492 101785 106225 108022 108154 109315 111889 113326 116536 119248 120172 120943 121246 122527 124102 124564 125536 125824 126442 126697 128914 129580 129601 130081 130657 132841 132988 133183 133939 134557 138472 139366 142294 151276 151297 151456 151495 152200 152896 158377 159430 160336 163165 163459 164701 167806 167848 172663
TCL: Reassign waters to push at step: 400
ETITLE: TS BOND ANGLE DIHED IMPRP ELECT VDW BOUNDARY MISC KINETIC TOTAL TEMP POTENTIAL TOTAL3 TEMPAVG PRESSURE GPRESSURE VOLUME PRESSAVG GPRESSAVG
ENERGY: 400 14388.1828 18608.8779 23360.1246 56.3865 -596681.4540 21939.5574 1164.0652 0.0000 0.0000 -517164.2596 0.0000 -517164.2596 -517164.2596 0.0000 -3811.6604 -4328.5434 2381639.4711 -3811.6604 -4328.5434
ENERGY: 420 15944.7313 19718.7997 23324.4846 57.0627 -601016.0169 22725.3178 1163.9526 0.0000 0.0000 -518081.6681 0.0000 -518081.6681 -518081.6681 0.0000 -4428.7872 -4292.1562 2381639.4711 -4428.7872 -4292.1562
ENERGY: 440 15454.0935 18493.5378 23264.6128 57.4610 -601059.6246 23414.1586 1163.4267 0.0000 0.0000 -519212.3341 0.0000 -519212.3341 -519212.3341 0.0000 -4177.8930 -4282.4773 2381639.4711 -4177.8930 -4282.4773
ENERGY: 459 16400.9795 18769.9107 23252.1787 54.2112 -603099.7813 23539.1696 1163.4497 0.0000 0.0000 -519919.8818 0.0000 -519919.8818 -519919.8818 0.0000 -4529.6096 -4200.2465 2381639.4711 -4529.6096 -4200.2465
ENERGY: 479 15488.8769 19107.2133 23231.1864 54.1150 -603304.0798 23793.3267 1163.1826 0.0000 0.0000 -520466.1788 0.0000 -520466.1788 -520466.1788 0.0000 -4100.7868 -4214.1590 2381639.4711 -4100.7868 -4214.1590
ENERGY: 499 15225.3405 18772.0658 23207.8799 55.4765 -603532.4228 24142.0069 1162.9065 0.0000 0.0000 -520966.7467 0.0000 -520966.7467 -520966.7467 0.0000 -4081.5309 -4266.9882 2381639.4711 -4081.5309 -4266.9882
TCL: membrane dimensions at step 500: {17.1231446828 -17.0979524043}
TCL: Waters to push Up:   69958 71338 72484 76327 78400 80080 85087 85750 87037 88789 91774 92713 93454 99928 103048 104035 107326 115900 116467 118486 122683 127981 128041 128704 129259 130000 130957 140095 140233 141940 145822 150289 156427 158659 163807 166459 167335 169741 170095 171220 171415
TCL: Waters to push Down: 68053 68335 74722 78079 79207 79657 80590 81073 81676 85636 91828 92236 93001 93535 93760 94138 95836 97315 98476 99142 100492 101785 106225 108022 108154 109315 111889 113326 116536 118807 119521 120172 120943 121048 122527 124102 124564 125536 125824 126442 126697 128914 129580 130081 130657 132988 133939 136036 138472 138541 139366 142294 147463 151276 151297 151456 151495 152200 152896 159430 160336 164701 165844 167848 172663
TCL: Reassign waters to push at step: 500
ETITLE: TS BOND ANGLE DIHED IMPRP ELECT VDW BOUNDARY MISC KINETIC TOTAL TEMP POTENTIAL TOTAL3 TEMPAVG PRESSURE GPRESSURE VOLUME PRESSAVG GPRESSAVG
ENERGY: 500 15243.2882 18785.2630 23208.2235 55.4571 -603558.0752 24136.4442 1162.9069 0.0000 0.0000 -520966.4923 0.0000 -520966.4923 -520966.4923 0.0000 -4092.4042 -4268.6190 2381639.4711 -4092.4042 -4268.6190
ENERGY: 520 16336.6736 18672.1768 23182.1467 54.1935 -605489.1746 24597.9457 1163.2667 0.0000 0.0000 -521482.7717 0.0000 -521482.7717 -521482.7717 0.0000 -4415.6753 -4162.3013 2381639.4711 -4415.6753 -4162.3013
ENERGY: 540 15624.9580 18853.3385 23150.2137 54.0591 -605918.4728 25162.6039 1163.7357 0.0000 0.0000 -521909.5639 0.0000 -521909.5639 -521909.5639 0.0000 -3993.2557 -4100.4809 2381639.4711 -3993.2557 -4100.4809
ENERGY: 559 15868.2548 19280.8482 23126.8237 55.6039 -607440.8342 25686.7820 1164.1014 0.0000 0.0000 -522258.4202 0.0000 -522258.4202 -522258.4202 0.0000 -4110.1304 -4087.4589 2381639.4711 -4110.1304 -4087.4589
ENERGY: 579 16704.4390 18901.4576 23054.4850 56.4993 -610798.0048 27551.7394 1166.0944 0.0000 0.0000 -523363.2901 0.0000 -523363.2901 -523363.2901 0.0000 -4287.9021 -4003.0758 2381639.4711 -4287.9021 -4003.0758
ENERGY: 599 15905.7442 18850.9782 22991.8076 55.0124 -612371.7906 29066.0937 1168.5604 0.0000 0.0000 -524333.5941 0.0000 -524333.5941 -524333.5941 0.0000 -3756.2586 -3889.3058 2381639.4711 -3756.2586 -3889.3058
TCL: membrane dimensions at step 600: {17.133438647 -17.1073253517}
TCL: Waters to push Up:   69958 71338 72484 76327 76450 78400 81949 83890 85750 87037 91774 92713 93454 97348 98509 99928 100033 103048 104035 107326 110470 111970 115900 116467 120886 122683 126589 127981 128704 130000 130957 133786 134797 138649 140095 141940 144286 145066 145993 150289 156427 162958 163807 169741 170134 171220 171415
TCL: Waters to push Down: 68584 69988 74431 74722 78079 79207 79657 80125 80590 81073 81676 85636 86569 92566 92947 93535 93760 94138 95716 95836 97315 98476 100492 106225 108022 108154 109195 109315 111889 114799 114961 116536 117526 119521 120172 120943 122527 124102 124564 125536 125824 126442 126697 129580 129601 130081 130657 132841 132988 133183 133939 134557 136036 138472 138541 139366 142294 151276 151297 151456 151495 152200 152896 159430 160336 162829 163459 167806 167848 172663
TCL: Reassign waters to push at step: 600
ETITLE: TS BOND ANGLE DIHED IMPRP ELECT VDW BOUNDARY MISC KINETIC TOTAL TEMP POTENTIAL TOTAL3 TEMPAVG PRESSURE GPRESSURE VOLUME PRESSAVG GPRESSAVG
ENERGY: 600 15905.6356 18844.7829 22992.2809 54.9569 -612353.4943 29053.8840 1168.5364 0.0000 0.0000 -524333.4175 0.0000 -524333.4175 -524333.4175 0.0000 -3758.6112 -3889.1806 2381639.4711 -3758.6112 -3889.1806
ENERGY: 620 15990.2268 19425.4491 22935.1254 53.8310 -615145.8951 30417.6203 1170.8186 0.0000 0.0000 -525152.8239 0.0000 -525152.8239 -525152.8239 0.0000 -3587.4535 -3706.2421 2381639.4711 -3587.4535 -3706.2421
ENERGY: 640 17016.6735 19016.0716 22890.2366 52.8246 -617453.1789 31548.7138 1172.6545 0.0000 0.0000 -525756.0043 0.0000 -525756.0043 -525756.0043 0.0000 -3886.8357 -3660.2817 2381639.4711 -3886.8357 -3660.2817
ENERGY: 659 16406.3159 18786.0742 22865.5721 54.4321 -617745.7114 32060.8604 1174.2675 0.0000 0.0000 -526398.1892 0.0000 -526398.1892 -526398.1892 0.0000 -3601.6770 -3592.3123 2381639.4711 -3601.6770 -3592.3123
ENERGY: 679 16423.5477 19351.4743 22839.3500 53.0982 -619322.5004 32649.2142 1176.4952 0.0000 0.0000 -526829.3208 0.0000 -526829.3208 -526829.3208 0.0000 -3418.8533 -3416.4152 2381639.4711 -3418.8533 -3416.4152
ENERGY: 699 16676.2665 19432.1501 22807.7126 52.9370 -620813.1661 33280.1107 1178.7561 0.0000 0.0000 -527385.2331 0.0000 -527385.2331 -527385.2331 0.0000 -3726.9028 -3670.2652 2381639.4711 -3726.9028 -3670.2652
TCL: membrane dimensions at step 700: {17.1419684652 -17.1156829173}
TCL: Waters to push Up:   69958 72484 76327 76450 80080 81181 81949 87037 91774 92713 93454 96613 97348 98509 99928 103048 104035 107326 111970 115900 116467 118486 126409 126589 127981 128704 129259 130000 130957 133786 138649 140095 140233 141940 144286 145993 150289 156427 158659 162958 163807 166585 167335 167653 169696 169741 170134 171220 171253
TCL: Waters to push Down: 68020 68053 68335 68584 71503 74722 75793 78079 79207 80590 81073 81676 85636 91828 92236 93001 93535 93760 94138 95836 97315 98476 100492 101785 106225 108022 108154 109315 111889 114799 114961 115261 116536 119248 120943 122527 124102 124564 125536 125824 126442 126697 129580 129601 130081 130657 132841 132988 133939 134557 136036 138472 139366 142294 149776 150778 151297 151456 151495 152200 152896 153856 159430 160336 167848 172663
TCL: Reassign waters to push at step: 700
ETITLE: TS BOND ANGLE DIHED IMPRP ELECT VDW BOUNDARY MISC KINETIC TOTAL TEMP POTENTIAL TOTAL3 TEMPAVG PRESSURE GPRESSURE VOLUME PRESSAVG GPRESSAVG
ENERGY: 700 16674.6332 19432.2711 22807.7501 52.9350 -620810.8039 33279.2213 1178.7531 0.0000 0.0000 -527385.2400 0.0000 -527385.2400 -527385.2400 0.0000 -3726.3876 -3670.2248 2381639.4711 -3726.3876 -3670.2248
ENERGY: 720 16487.4545 18943.9353 22788.1164 53.1304 -620885.1844 33636.6732 1180.4818 0.0000 0.0000 -527795.3929 0.0000 -527795.3929 -527795.3929 0.0000 -3320.6269 -3324.7110 2381639.4711 -3320.6269 -3324.7110
ENERGY: 740 16799.8539 19111.2554 22769.2444 52.9812 -621994.5970 33970.6274 1182.1559 0.0000 0.0000 -528108.4787 0.0000 -528108.4787 -528108.4787 0.0000 -3514.8489 -3408.7833 2381639.4711 -3514.8489 -3408.7833
ENERGY: 759 16638.7815 19431.7265 22745.9856 52.8654 -622909.0501 34335.6649 1183.7307 0.0000 0.0000 -528520.2954 0.0000 -528520.2954 -528520.2954 0.0000 -3364.7445 -3349.9714 2381639.4711 -3364.7445 -3349.9714
ENERGY: 779 16544.8780 19134.3633 22721.4756 52.4153 -623301.1622 34703.2475 1185.6108 0.0000 0.0000 -528959.1718 0.0000 -528959.1718 -528959.1718 0.0000 -3255.1893 -3299.2972 2381639.4711 -3255.1893 -3299.2972
ENERGY: 799 16683.9286 19085.9108 22703.9090 52.3521 -624035.6945 35010.9557 1186.9120 0.0000 0.0000 -529311.7263 0.0000 -529311.7263 -529311.7263 0.0000 -3423.8534 -3397.0054 2381639.4711 -3423.8534 -3397.0054
TCL: membrane dimensions at step 800: {17.1465548346 -17.1204831845}
TCL: Waters to push Up:   69514 69958 72484 76327 78400 80080 81181 85087 85264 85750 87037 88789 92713 93454 99928 107326 115900 116467 119221 120886 126508 126589 127981 128704 130000 130957 134797 140095 140233 141940 144286 144553 145993 150289 156427 158659 160330 163807 167335 169741 170095 170134 171220 172429
TCL: Waters to push Down: 68053 74722 78079 79207 79657 80590 81073 81676 85636 87940 92236 93001 93535 93760 95236 95836 97315 100492 101785 106225 108022 108154 109315 111889 113326 116536 120172 120943 121048 122527 124102 124564 125536 125824 126442 126697 129580 130081 130657 131926 132988 133183 138472 138541 139366 142294 151297 151456 151495 152200 152896 158377 159430 160336 163165 163459 167806 167848
TCL: Reassign waters to push at step: 800
ETITLE: TS BOND ANGLE DIHED IMPRP ELECT VDW BOUNDARY MISC KINETIC TOTAL TEMP POTENTIAL TOTAL3 TEMPAVG PRESSURE GPRESSURE VOLUME PRESSAVG GPRESSAVG
ENERGY: 800 16634.8510 19105.1261 22701.7122 52.2460 -624098.1855 35039.1495 1186.9954 0.0000 0.0000 -529378.1053 0.0000 -529378.1053 -529378.1053 0.0000 -3383.4971 -3378.7710 2381639.4711 -3383.4971 -3378.7710
ENERGY: 820 16655.2665 19374.2798 22672.1886 52.8371 -625123.6605 35646.0254 1189.2112 0.0000 0.0000 -529533.8521 0.0000 -529533.8521 -529533.8521 0.0000 -3203.3330 -3335.0986 2381639.4711 -3203.3330 -3335.0986
ENERGY: 840 16958.1303 19157.5684 22661.7156 52.0080 -625933.3956 35753.3899 1189.6492 0.0000 0.0000 -530160.9343 0.0000 -530160.9343 -530160.9343 0.0000 -3307.6348 -3197.3595 2381639.4711 -3307.6348 -3197.3595
ENERGY: 859 17167.8811 19421.7920 22638.0122 54.3131 -626948.4296 36177.7024 1191.0849 0.0000 0.0000 -530297.6438 0.0000 -530297.6438 -530297.6438 0.0000 -3351.3192 -3253.2224 2381639.4711 -3351.3192 -3253.2224
ENERGY: 879 16650.3805 19411.3658 22626.1652 52.3778 -627014.9722 36266.9931 1191.3292 0.0000 0.0000 -530816.3606 0.0000 -530816.3606 -530816.3606 0.0000 -3078.8093 -3144.2684 2381639.4711 -3078.8093 -3144.2684
ENERGY: 899 16766.9491 19269.9012 22618.8908 51.7447 -627294.5016 36309.4940 1191.1729 0.0000 0.0000 -531086.3489 0.0000 -531086.3489 -531086.3489 0.0000 -3277.9459 -3287.5485 2381639.4711 -3277.9459 -3287.5485
TCL: membrane dimensions at step 900: {17.1483601039 -17.1245555207}
TCL: Waters to push Up:   69958 71338 72484 76327 78400 80080 85750 87037 88789 91774 92713 93454 99928 103048 110470 115900 116467 118486 120889 122683 126508 126589 127981 128041 128704 130000 130957 140095 141940 145066 145993 150289 156427 158659 163807 166459 166585 169741 170095 170134 171220 171253 171415 171877 172429
TCL: Waters to push Down: 68053 68584 73690 74431 78079 79207 79657 80590 81073 81676 85636 86569 91828 92236 92566 93001 93535 93760 94138 95836 97315 99142 100492 101785 106225 108022 108154 109315 111889 113326 116536 117424 118807 119521 120172 120943 121246 122527 123049 124102 124564 125536 125824 126442 126697 129580 129601 130657 132841 133939 135448 138472 139366 142294 147463 150778 151297 151456 151495 152200 152896 158377 159430 160336 164701 165844 167806 167848
TCL: Reassign waters to push at step: 900
ETITLE: TS BOND ANGLE DIHED IMPRP ELECT VDW BOUNDARY MISC KINETIC TOTAL TEMP POTENTIAL TOTAL3 TEMPAVG PRESSURE GPRESSURE VOLUME PRESSAVG GPRESSAVG
ENERGY: 900 16893.8315 19228.7117 22618.2396 52.7436 -627302.6414 36293.6406 1190.9694 0.0000 0.0000 -531024.5050 0.0000 -531024.5050 -531024.5050 0.0000 -3319.4393 -3319.0965 2381639.4711 -3319.4393 -3319.0965
ENERGY: 920 17286.5927 19206.2026 22612.9434 52.0500 -627751.0661 36280.8554 1189.7679 0.0000 0.0000 -531122.6541 0.0000 -531122.6541 -531122.6541 0.0000 -3154.4753 -3100.7419 2381639.4711 -3154.4753 -3100.7419
ENERGY: 940 16831.2596 19371.0434 22608.9788 51.7753 -628094.6538 36258.7552 1189.3094 0.0000 0.0000 -531783.5321 0.0000 -531783.5321 -531783.5321 0.0000 -3267.1392 -3279.8992 2381639.4711 -3267.1392 -3279.8992
ENERGY: 959 16773.3747 19376.3094 22605.3529 51.7668 -628221.1380 36266.8269 1188.7289 0.0000 0.0000 -531958.7784 0.0000 -531958.7784 -531958.7784 0.0000 -3150.8012 -3188.5076 2381639.4711 -3150.8012 -3188.5076
ENERGY: 979 16886.1861 19165.0911 22598.9994 51.6455 -628352.3265 36294.3468 1187.9654 0.0000 0.0000 -532168.0923 0.0000 -532168.0923 -532168.0923 0.0000 -3236.8466 -3223.7033 2381639.4711 -3236.8466 -3223.7033
ENERGY: 999 16892.2772 19204.1008 22593.0810 51.3526 -628631.4108 36341.0533 1186.8733 0.0000 0.0000 -532362.6727 0.0000 -532362.6727 -532362.6727 0.0000 -3328.2049 -3309.9204 2381639.4711 -3328.2049 -3309.9204
TCL: membrane dimensions at step 1000: {17.1485259885 -17.1240889172}
TCL: Waters to push Up:   69514 69958 72484 76327 78400 80080 81181 85087 85264 87037 88789 91774 92713 93454 99928 104035 107326 111970 115900 116467 119221 120886 126409 126589 127981 128704 130000 130957 134797 138649 140095 140233 141940 144286 144553 145993 150289 156427 158659 163807 167335 169741 170095 170134 171220 171415 172429
TCL: Waters to push Down: 68053 68335 74722 78079 79207 79657 80590 81073 81676 85636 92236 93001 93535 93760 94138 95836 97315 100492 106225 108022 108154 109315 111889 113326 116536 120943 121246 122527 124102 124564 125536 125824 126442 126697 129580 130081 130657 132988 133939 134557 136036 138472 138541 139366 142294 151297 151456 151495 152200 152896 159430 160336 167806 167848
TCL: Reassign waters to push at step: 1000
ETITLE: TS BOND ANGLE DIHED IMPRP ELECT VDW BOUNDARY MISC KINETIC TOTAL TEMP POTENTIAL TOTAL3 TEMPAVG PRESSURE GPRESSURE VOLUME PRESSAVG GPRESSAVG
ENERGY: 1000 16860.5463 19234.3113 22591.9352 51.2631 -628679.9115 36345.8159 1186.6306 0.0000 0.0000 -532409.4090 0.0000 -532409.4090 -532409.4090 0.0000 -3285.3802 -3283.5700 2381639.4711 -3285.3802 -3283.5700
ENERGY: 1020 16847.5322 19361.0187 22584.4174 51.8073 -629063.4099 36412.1187 1184.9718 0.0000 0.0000 -532621.5438 0.0000 -532621.5438 -532621.5438 0.0000 -3263.1820 -3272.6860 2381639.4711 -3263.1820 -3272.6860
ENERGY: 1040 16987.3212 19128.6163 22575.7767 51.7261 -629275.0508 36496.7752 1183.4176 0.0000 0.0000 -532851.4177 0.0000 -532851.4177 -532851.4177 0.0000 -3253.9591 -3205.2881 2381639.4711 -3253.9591 -3205.2881
ENERGY: 1059 16901.2724 19245.8041 22567.0918 52.3493 -629573.6759 36561.6691 1181.8226 0.0000 0.0000 -533063.6665 0.0000 -533063.6665 -533063.6665 0.0000 -3223.6435 -3229.8601 2381639.4711 -3223.6435 -3229.8601
ENERGY: 1079 16857.9604 19435.2873 22559.2446 51.2977 -630001.1924 36628.6797 1180.5556 0.0000 0.0000 -533288.1671 0.0000 -533288.1671 -533288.1671 0.0000 -3240.9044 -3264.3311 2381639.4711 -3240.9044 -3264.3311
ENERGY: 1099 17314.8375 19057.4185 22549.4495 53.1355 -630193.1232 36721.8235 1178.7112 0.0000 0.0000 -533317.7475 0.0000 -533317.7475 -533317.7475 0.0000 -3442.9131 -3352.8446 2381639.4711 -3442.9131 -3352.8446
TCL: membrane dimensions at step 1100: {17.1481203366 -17.1223876521}
TCL: Waters to push Up:   69958 71338 72484 76327 80080 81181 81949 85750 87037 92713 93454 97348 98509 99928 103048 104035 107326 115900 116467 118486 119221 120886 126409 126508 126589 126718 127981 128704 129259 130000 130957 138649 140095 140233 141940 144286 145993 150289 156427 158659 162958 163807 166585 167335 167653 169741 170134 171220
TCL: Waters to push Down: 68020 68053 68584 71503 74722 75793 78079 79207 79657 80590 81073 81676 85636 91828 93001 93535 93760 95236 95836 97315 100492 101785 106225 108022 108154 109315 111889 114799 114961 116536 117526 120172 120943 122527 124102 124564 125536 125824 126442 126697 129580 129601 130081 130657 131926 132841 132988 133183 134557 136036 138472 138541 139366 142294 149776 150778 151276 151456 151495 152200 152896 153856 159430 160336 162829 167848
TCL: Reassign waters to push at step: 1100
ETITLE: TS BOND ANGLE DIHED IMPRP ELECT VDW BOUNDARY MISC KINETIC TOTAL TEMP POTENTIAL TOTAL3 TEMPAVG PRESSURE GPRESSURE VOLUME PRESSAVG GPRESSAVG
ENERGY: 1100 17018.7290 19160.5294 22551.8589 51.1132 -630130.1549 36671.8147 1179.3427 0.0000 0.0000 -533496.7670 0.0000 -533496.7670 -533496.7670 0.0000 -3324.4202 -3286.9885 2381639.4711 -3324.4202 -3286.9885
ENERGY: 1120 16988.1257 19205.9209 22543.0836 51.1240 -630416.0206 36710.7566 1178.3676 0.0000 0.0000 -533738.6421 0.0000 -533738.6421 -533738.6421 0.0000 -3271.5740 -3251.6603 2381639.4711 -3271.5740 -3251.6603
ENERGY: 1140 16892.7188 19431.5268 22536.4240 51.2961 -630699.0725 36712.5957 1177.8477 0.0000 0.0000 -533896.6634 0.0000 -533896.6634 -533896.6634 0.0000 -3188.6852 -3212.2577 2381639.4711 -3188.6852 -3212.2577
ENERGY: 1159 16979.5244 19256.8913 22530.4826 51.8422 -630797.7444 36724.3368 1177.0192 0.0000 0.0000 -534077.6478 0.0000 -534077.6478 -534077.6478 0.0000 -3250.4017 -3241.0293 2381639.4711 -3250.4017 -3241.0293
ENERGY: 1179 17081.5398 19114.9611 22525.1226 51.0385 -630957.3892 36748.6967 1176.2120 0.0000 0.0000 -534259.8186 0.0000 -534259.8186 -534259.8186 0.0000 -3289.4412 -3242.8625 2381639.4711 -3289.4412 -3242.8625
ENERGY: 1199 16931.7786 19418.5130 22517.0444 51.1019 -631344.7338 36809.0103 1175.4549 0.0000 0.0000 -534441.8308 0.0000 -534441.8308 -534441.8308 0.0000 -3296.1505 -3307.0654 2381639.4711 -3296.1505 -3307.0654
TCL: membrane dimensions at step 1200: {17.1470396149 -17.1212007244}
TCL: Waters to push Up:   69958 72484 76327 78400 81949 85750 87037 91774 92713 97348 98509 99928 103048 104035 107326 110470 111970 115900 116467 120886 126589 127981 128704 129517 130000 130957 133786 134797 135607 140095 141940 143731 144286 145066 145360 145993 150289 156427 158659 162958 163807 167335 167653 169741 170134 171220
TCL: Waters to push Down: 74431 74722 78079 79207 80590 81073 81676 85636 86569 92236 92566 92947 93535 93760 94138 95836 97315 100492 101785 106225 108022 108154 109315 111889 114799 114961 116536 119521 120172 120943 121048 121246 122527 124102 124564 125536 125824 126442 126697 129580 129601 130081 130657 132841 132988 133939 138472 139366 142294 151276 151297 151456 151495 152200 152896 159430 160336 163459 167806 167848 172663
TCL: Reassign waters to push at step: 1200
ETITLE: TS BOND ANGLE DIHED IMPRP ELECT VDW BOUNDARY MISC KINETIC TOTAL TEMP POTENTIAL TOTAL3 TEMPAVG PRESSURE GPRESSURE VOLUME PRESSAVG GPRESSAVG
ENERGY: 1200 16931.6727 19417.6363 22517.0646 51.0999 -631343.5225 36808.7545 1175.4564 0.0000 0.0000 -534441.8381 0.0000 -534441.8381 -534441.8381 0.0000 -3296.3991 -3307.2539 2381639.4711 -3296.3991 -3307.2539
ENERGY: 1220 16964.4232 19299.6954 22511.4494 51.5286 -631487.3385 36884.7996 1174.8862 0.0000 0.0000 -534600.5560 0.0000 -534600.5560 -534600.5560 0.0000 -3243.1299 -3257.4154 2381639.4711 -3243.1299 -3257.4154
ENERGY: 1240 17221.8224 19129.3093 22504.2416 51.6468 -631797.5957 37058.3184 1174.0745 0.0000 0.0000 -534658.1827 0.0000 -534658.1827 -534658.1827 0.0000 -3183.3095 -3105.1314 2381639.4711 -3183.3095 -3105.1314
ENERGY: 1259 17128.6515 19547.1535 22496.4062 51.9934 -632408.1789 37208.0203 1173.7823 0.0000 0.0000 -534802.1718 0.0000 -534802.1718 -534802.1718 0.0000 -3294.0520 -3287.3816 2381639.4711 -3294.0520 -3287.3816
ENERGY: 1279 16980.3730 19406.3191 22493.6287 51.3563 -632446.9812 37282.6895 1173.7400 0.0000 0.0000 -535058.8745 0.0000 -535058.8745 -535058.8745 0.0000 -3155.0605 -3180.3608 2381639.4711 -3155.0605 -3180.3608
ENERGY: 1299 17137.9133 19159.6310 22491.5566 52.0032 -632560.0602 37278.1474 1173.1690 0.0000 0.0000 -535267.6398 0.0000 -535267.6398 -535267.6398 0.0000 -3330.7312 -3278.9085 2381639.4711 -3330.7312 -3278.9085
TCL: membrane dimensions at step 1300: {17.1464307348 -17.1207017958}
TCL: Waters to push Up:   69514 69958 71338 72484 76327 78400 80080 81181 81949 85264 87037 88789 91774 92713 93454 96613 98509 99928 107326 111970 116467 119221 120886 122683 126589 127981 128041 128704 130000 130957 140095 140233 141940 144553 145066 145993 150289 156427 158659 162958 163807 166459 169741 170134 171415 171877
TCL: Waters to push Down: 68053 68335 73690 76810 78079 79207 79657 80590 81073 81676 85636 91828 92236 93001 93535 93760 94138 95836 97315 100492 106225 108022 108154 109315 111889 113326 116536 118807 119521 120172 120943 121246 122527 124102 124564 125536 125824 126442 126697 129580 130657 132841 132988 133939 138472 139366 142294 147718 150460 151297 151456 151495 152200 152896 158377 159430 160336 164701 167797 167806 167848
TCL: Reassign waters to push at step: 1300
ETITLE: TS BOND ANGLE DIHED IMPRP ELECT VDW BOUNDARY MISC KINETIC TOTAL TEMP POTENTIAL TOTAL3 TEMPAVG PRESSURE GPRESSURE VOLUME PRESSAVG GPRESSAVG
ENERGY: 1300 17344.8050 19164.2364 22492.3578 52.3629 -632630.6003 37307.7709 1173.0692 0.0000 0.0000 -535095.9981 0.0000 -535095.9981 -535095.9981 0.0000 -3373.5439 -3290.8295 2381639.4711 -3373.5439 -3290.8295
ENERGY: 1320 17058.5975 19320.9558 22489.7329 51.8439 -632912.0535 37352.7058 1173.2792 0.0000 0.0000 -535464.9384 0.0000 -535464.9384 -535464.9384 0.0000 -3181.8701 -3191.4183 2381639.4711 -3181.8701 -3191.4183
ENERGY: 1340 17020.8735 19394.9755 22486.3112 51.0112 -633150.0360 37413.2825 1173.1804 0.0000 0.0000 -535610.4017 0.0000 -535610.4017 -535610.4017 0.0000 -3146.4588 -3164.1131 2381639.4711 -3146.4588 -3164.1131
ENERGY: 1359 17071.7940 19279.7406 22484.2755 51.1505 -633263.1956 37500.7266 1173.1009 0.0000 0.0000 -535702.4074 0.0000 -535702.4074 -535702.4074 0.0000 -3210.6586 -3203.2870 2381639.4711 -3210.6586 -3203.2870
ENERGY: 1379 17130.0730 19206.9379 22481.9786 51.1989 -633494.7424 37630.0276 1172.9177 0.0000 0.0000 -535821.6085 0.0000 -535821.6085 -535821.6085 0.0000 -3157.6624 -3139.8238 2381639.4711 -3157.6624 -3139.8238
ENERGY: 1399 17065.2742 19406.4747 22476.8195 51.3028 -633890.1336 37785.3063 1172.6877 0.0000 0.0000 -535932.2684 0.0000 -535932.2684 -535932.2684 0.0000 -3243.2274 -3256.0113 2381639.4711 -3243.2274 -3256.0113
TCL: membrane dimensions at step 1400: {17.1469172069 -17.1212748706}
TCL: Waters to push Up:   69958 72484 76327 78400 80080 81181 81949 85750 87037 91774 92713 96805 99928 103048 104035 107326 115900 116467 120886 126508 126589 127981 128704 130000 130957 133786 134797 140095 141940 144286 145993 150289 156427 158659 163807 166585 167335 167653 169741 170134 171220 171415
TCL: Waters to push Down: 68020 68053 68584 78079 79207 79657 80590 81073 81676 85636 92947 93535 93760 95836 97315 100492 101785 106225 108022 108154 109315 111889 113326 114799 116536 117526 120943 121246 122527 124102 124564 125536 125824 126442 126697 129580 129601 130081 130657 132988 133939 134557 136036 138472 138541 139366 142294 151297 151456 151495 152200 152896 159430 160336 162829 163459 167806 167848 172663
TCL: Reassign waters to push at step: 1400
ETITLE: TS BOND ANGLE DIHED IMPRP ELECT VDW BOUNDARY MISC KINETIC TOTAL TEMP POTENTIAL TOTAL3 TEMPAVG PRESSURE GPRESSURE VOLUME PRESSAVG GPRESSAVG
ENERGY: 1400 17065.1909 19405.8041 22476.8323 51.2984 -633888.8888 37784.8041 1172.6881 0.0000 0.0000 -535932.2710 0.0000 -535932.2710 -535932.2710 0.0000 -3243.1426 -3255.9508 2381639.4711 -3243.1426 -3255.9508
ENERGY: 1420 17125.7105 19307.2359 22472.1650 51.1098 -634172.0415 37976.3359 1172.6186 0.0000 0.0000 -536066.8657 0.0000 -536066.8657 -536066.8657 0.0000 -3134.5954 -3121.0947 2381639.4711 -3134.5954 -3121.0947
ENERGY: 1440 17169.7051 19198.3496 22468.3624 50.7403 -634370.3698 38148.1540 1172.5102 0.0000 0.0000 -536162.5482 0.0000 -536162.5482 -536162.5482 0.0000 -3151.9090 -3140.8589 2381639.4711 -3151.9090 -3140.8589
ENERGY: 1459 17121.5014 19408.2191 22462.8685 51.1209 -634823.4261 38331.1086 1172.8165 0.0000 0.0000 -536275.7912 0.0000 -536275.7912 -536275.7912 0.0000 -3069.4765 -3070.1630 2381639.4711 -3069.4765 -3070.1630
ENERGY: 1479 17156.4271 19406.6490 22457.9963 51.4122 -635160.8526 38523.8872 1173.3498 0.0000 0.0000 -536391.1311 0.0000 -536391.1311 -536391.1311 0.0000 -3114.4040 -3113.6795 2381639.4711 -3114.4040 -3113.6795
ENERGY: 1499 17226.8022 19230.4304 22452.3615 51.2238 -635356.0389 38721.8095 1173.9975 0.0000 0.0000 -536499.4139 0.0000 -536499.4139 -536499.4139 0.0000 -3126.4535 -3108.1022 2381639.4711 -3126.4535 -3108.1022
TCL: membrane dimensions at step 1500: {17.1477652263 -17.1218864392}
TCL: Waters to push Up:   69514 69958 71338 72484 76327 77404 80080 85087 87037 88789 92713 93454 97348 99928 104035 107326 110470 111970 115900 116467 118486 119221 120886 126409 126589 126718 127981 128704 129259 130000 130957 138649 140095 140233 141940 144286 144553 145993 150289 156427 158536 158659 163807 167335 167653 169741 170095 170134 171220 172429
TCL: Waters to push Down: 71503 74431 74722 75793 78079 79207 79657 80590 81676 85636 86569 91828 92566 93001 93535 93760 94138 95836 97315 100492 106225 108022 108154 109315 111889 114961 116536 120172 120943 121048 122527 124102 124564 125536 125824 126442 126697 129580 129601 130081 130657 131926 132841 132988 133183 133939 134557 136036 138472 138541 139366 142294 151276 151456 151495 152200 152896 153856 159430 160336 167848
TCL: Reassign waters to push at step: 1500
ETITLE: TS BOND ANGLE DIHED IMPRP ELECT VDW BOUNDARY MISC KINETIC TOTAL TEMP POTENTIAL TOTAL3 TEMPAVG PRESSURE GPRESSURE VOLUME PRESSAVG GPRESSAVG
ENERGY: 1500 17355.8251 19225.8697 22451.4713 52.7773 -635484.8708 38808.0737 1174.3699 0.0000 0.0000 -536416.4838 0.0000 -536416.4838 -536416.4838 0.0000 -3124.5442 -3076.4526 2381639.4711 -3124.5442 -3076.4526
ENERGY: 1520 17166.7475 19366.3568 22447.0653 50.9174 -635701.2777 38886.6027 1174.9049 0.0000 0.0000 -536608.6831 0.0000 -536608.6831 -536608.6831 0.0000 -3062.1122 -3064.6619 2381639.4711 -3062.1122 -3064.6619
ENERGY: 1540 17172.5447 19448.1957 22442.5343 51.1207 -636030.8830 39035.9960 1175.5704 0.0000 0.0000 -536704.9212 0.0000 -536704.9212 -536704.9212 0.0000 -2990.2050 -2997.2656 2381639.4711 -2990.2050 -2997.2656
ENERGY: 1559 17267.3354 19287.0276 22438.2034 51.0939 -636214.9077 39193.2464 1176.1759 0.0000 0.0000 -536801.8251 0.0000 -536801.8251 -536801.8251 0.0000 -3034.2731 -3008.3257 2381639.4711 -3034.2731 -3008.3257
ENERGY: 1579 17219.9076 19393.4086 22433.8291 51.4450 -636562.0742 39367.4582 1176.9363 0.0000 0.0000 -536919.0893 0.0000 -536919.0893 -536919.0893 0.0000 -2972.4521 -2969.5503 2381639.4711 -2972.4521 -2969.5503
ENERGY: 1599 17271.9220 19446.5860 22427.0422 51.5240 -636959.7481 39623.0257 1178.2176 0.0000 0.0000 -536961.4305 0.0000 -536961.4305 -536961.4305 0.0000 -3045.1920 -3058.2417 2381639.4711 -3045.1920 -3058.2417
TCL: membrane dimensions at step 1600: {17.148232136 -17.1219062721}
TCL: Waters to push Up:   69958 72484 76327 78400 80080 83890 85264 85750 87037 88789 91774 92713 93454 98509 103048 115900 116467 118486 120886 126409 126589 127981 128041 128704 130000 130957 134797 135607 138649 140095 140233 141940 144286 145066 145993 150289 156427 158659 162958 163807 166459 169741 170095 170134 171220 172429
TCL: Waters to push Down: 68053 68335 74722 78079 79207 79657 80590 81073 81676 85636 92236 93001 93535 93760 94138 95836 97315 99142 100492 101785 106225 108022 108154 109315 111889 113326 116536 118807 119521 120172 120943 121246 122527 124102 124564 125536 125824 126442 126697 129580 130657 132841 132988 133939 138472 139366 142294 147463 151276 151297 151495 152200 152896 159430 160336 165844 167806 167848
TCL: Reassign waters to push at step: 1600
ETITLE: TS BOND ANGLE DIHED IMPRP ELECT VDW BOUNDARY MISC KINETIC TOTAL TEMP POTENTIAL TOTAL3 TEMPAVG PRESSURE GPRESSURE VOLUME PRESSAVG GPRESSAVG
ENERGY: 1600 17185.0102 19475.5252 22428.4344 50.9634 -636887.6520 39546.8702 1177.8005 0.0000 0.0000 -537023.0482 0.0000 -537023.0482 -537023.0482 0.0000 -3026.4605 -3054.8812 2381639.4711 -3026.4605 -3054.8812
ENERGY: 1620 17290.7626 19312.2545 22424.2896 50.9415 -637026.0997 39664.9028 1178.5082 0.0000 0.0000 -537104.4404 0.0000 -537104.4404 -537104.4404 0.0000 -2969.1735 -2938.5002 2381639.4711 -2969.1735 -2938.5002
ENERGY: 1640 17295.3546 19387.9369 22419.2030 51.3766 -637374.5770 39838.7595 1179.2925 0.0000 0.0000 -537202.6539 0.0000 -537202.6539 -537202.6539 0.0000 -2947.7530 -2936.5575 2381639.4711 -2947.7530 -2936.5575
ENERGY: 1659 17219.1245 19519.7725 22415.7328 51.0526 -637653.7244 39983.6174 1180.1033 0.0000 0.0000 -537284.3213 0.0000 -537284.3213 -537284.3213 0.0000 -2868.2605 -2886.1401 2381639.4711 -2868.2605 -2886.1401
ENERGY: 1679 17320.9315 19342.6067 22410.6559 51.6964 -637879.8698 40175.6164 1180.9924 0.0000 0.0000 -537397.3704 0.0000 -537397.3704 -537397.3704 0.0000 -2919.0791 -2893.4027 2381639.4711 -2919.0791 -2893.4027
ENERGY: 1699 17289.6854 19539.5323 22405.1529 50.8776 -638413.5866 40440.3071 1181.6788 0.0000 0.0000 -537506.3524 0.0000 -537506.3524 -537506.3524 0.0000 -2939.6954 -2949.2665 2381639.4711 -2939.6954 -2949.2665
TCL: membrane dimensions at step 1700: {17.1477527926 -17.1214310162}
TCL: Waters to push Up:   69514 69958 71338 72484 76327 78400 80080 81181 87037 91774 92713 93454 98509 99928 101872 103012 104035 107326 116467 120886 120889 122683 126508 126589 127981 128041 128704 129517 130000 130957 140095 141940 144553 145066 145360 145993 150289 156427 158659 162958 163807 166459 166585 169741 170134 171415 171877 172429
TCL: Waters to push Down: 68053 68584 73690 76810 78079 79207 79657 80590 81073 81676 85636 93535 93760 94138 95836 97315 100492 106225 108022 108154 109315 111889 113326 116536 117526 119521 120943 121246 122527 123049 124102 124564 125536 125824 126442 126697 129580 129601 130081 130657 132988 133939 135448 138472 139366 142294 150778 151297 151456 151495 152200 152896 159430 160336 162829 163993 164701 167806 167848
TCL: Reassign waters to push at step: 1700
ETITLE: TS BOND ANGLE DIHED IMPRP ELECT VDW BOUNDARY MISC KINETIC TOTAL TEMP POTENTIAL TOTAL3 TEMPAVG PRESSURE GPRESSURE VOLUME PRESSAVG GPRESSAVG
ENERGY: 1700 17289.9588 19467.6791 22405.7171 50.7668 -638316.0489 40389.3486 1181.4999 0.0000 0.0000 -537531.0786 0.0000 -537531.0786 -537531.0786 0.0000 -2936.0209 -2940.2725 2381639.4711 -2936.0209 -2940.2725
ENERGY: 1720 17301.1669 19519.0662 22402.3580 51.2288 -638627.3453 40537.3500 1182.1032 0.0000 0.0000 -537634.0722 0.0000 -537634.0722 -537634.0722 0.0000 -2844.2440 -2844.7813 2381639.4711 -2844.2440 -2844.7813
ENERGY: 1740 17382.7944 19358.7670 22401.7090 51.6437 -638613.6731 40507.8354 1181.8584 0.0000 0.0000 -537729.0650 0.0000 -537729.0650 -537729.0650 0.0000 -2843.0505 -2831.9538 2381639.4711 -2843.0505 -2831.9538
ENERGY: 1759 17354.6986 19341.3945 22400.9133 50.8017 -638672.3208 40494.4608 1181.8016 0.0000 0.0000 -537848.2505 0.0000 -537848.2505 -537848.2505 0.0000 -2857.1804 -2844.5047 2381639.4711 -2857.1804 -2844.5047
ENERGY: 1779 17344.8793 19506.8152 22399.1319 51.6633 -638920.4116 40501.1767 1181.4271 0.0000 0.0000 -537935.3182 0.0000 -537935.3182 -537935.3182 0.0000 -2864.5604 -2851.1052 2381639.4711 -2864.5604 -2851.1052
ENERGY: 1799 17285.6540 19474.7370 22398.3044 50.9504 -638922.7785 40502.5561 1180.5430 0.0000 0.0000 -538030.0335 0.0000 -538030.0335 -538030.0335 0.0000 -2915.5201 -2939.9012 2381639.4711 -2915.5201 -2939.9012
TCL: membrane dimensions at step 1800: {17.1473322851 -17.1210753484}
TCL: Waters to push Up:   69958 72484 76327 76450 78400 80080 81181 85264 85750 87037 88789 91774 92713 93454 96805 99928 107326 110470 116467 118486 120886 126589 127981 128704 130000 130957 134797 140095 140233 141940 144286 145993 150289 156427 158659 163807 167335 167653 169741 170095 170134 171220 171415 171877
TCL: Waters to push Down: 68053 78079 79207 79657 80590 81073 81676 85636 93001 93535 93760 94138 95836 97315 100492 101785 106225 108022 108154 109315 111889 113326 114799 116536 118807 120172 120943 121246 122527 124102 124564 125536 125824 126442 126697 129580 130657 132841 132988 133939 136036 138472 139366 142294 151297 151495 152200 152896 159430 160336 167806 167848
TCL: Reassign waters to push at step: 1800
ETITLE: TS BOND ANGLE DIHED IMPRP ELECT VDW BOUNDARY MISC KINETIC TOTAL TEMP POTENTIAL TOTAL3 TEMPAVG PRESSURE GPRESSURE VOLUME PRESSAVG GPRESSAVG
ENERGY: 1800 17323.1895 19439.4015 22398.0271 50.9223 -638943.8492 40501.0101 1180.4150 0.0000 0.0000 -538050.8837 0.0000 -538050.8837 -538050.8837 0.0000 -2932.9556 -2940.0856 2381639.4711 -2932.9556 -2940.0856
ENERGY: 1820 17354.2480 19319.6257 22396.2026 51.0617 -638946.1022 40509.6168 1179.6844 0.0000 0.0000 -538135.6629 0.0000 -538135.6629 -538135.6629 0.0000 -2874.7270 -2862.6114 2381639.4711 -2874.7270 -2862.6114
ENERGY: 1840 17283.7706 19508.4014 22395.3804 50.7495 -639142.2942 40524.4625 1178.9630 0.0000 0.0000 -538200.5668 0.0000 -538200.5668 -538200.5668 0.0000 -2839.7522 -2863.3976 2381639.4711 -2839.7522 -2863.3976
ENERGY: 1859 17368.6497 19456.7811 22394.2654 50.7021 -639268.4572 40550.8734 1178.0552 0.0000 0.0000 -538269.1303 0.0000 -538269.1303 -538269.1303 0.0000 -2863.8916 -2855.1727 2381639.4711 -2863.8916 -2855.1727
ENERGY: 1879 17408.9969 19321.7111 22392.2777 51.1320 -639249.7649 40560.5737 1177.2713 0.0000 0.0000 -538337.8022 0.0000 -538337.8022 -538337.8022 0.0000 -2903.3885 -2871.1554 2381639.4711 -2903.3885 -2871.1554
ENERGY: 1899 17285.0075 19483.6560 22390.7375 50.7103 -639353.0118 40556.2266 1176.5892 0.0000 0.0000 -538410.0847 0.0000 -538410.0847 -538410.0847 0.0000 -2901.4098 -2934.9093 2381639.4711 -2901.4098 -2934.9093
TCL: membrane dimensions at step 1900: {17.1467456801 -17.1203066489}
TCL: Waters to push Up:   69514 69958 71338 72484 76327 77404 78400 80080 83890 85087 87037 92713 93454 103048 104035 111970 115900 116467 118486 119221 120886 126409 126589 127981 128704 130000 130957 135607 138649 140095 140233 141940 144286 144553 145066 145993 150289 156427 158659 162958 163807 166459 167335 169741 170095 170134 171220 172429
TCL: Waters to push Down: 68335 71503 74431 74722 75793 78079 79207 79657 80590 81676 85636 86569 92236 92566 93001 93535 93760 94138 95836 97315 99142 100492 106225 108022 108154 109315 111889 114961 116536 120172 120943 121246 122527 124102 124564 125536 125824 126442 126697 129580 129601 130081 130657 131926 132841 132988 134557 138472 138541 139366 142294 151456 151495 152200 152896 153856 159430 160336 165844 167848
TCL: Reassign waters to push at step: 1900
ETITLE: TS BOND ANGLE DIHED IMPRP ELECT VDW BOUNDARY MISC KINETIC TOTAL TEMP POTENTIAL TOTAL3 TEMPAVG PRESSURE GPRESSURE VOLUME PRESSAVG GPRESSAVG
ENERGY: 1900 17299.2370 19455.8287 22390.7673 50.6998 -639344.1948 40556.2343 1176.6473 0.0000 0.0000 -538414.7805 0.0000 -538414.7805 -538414.7805 0.0000 -2912.6101 -2936.5487 2381639.4711 -2912.6101 -2936.5487
ENERGY: 1920 17340.0759 19477.0725 22390.0664 51.1041 -639471.1521 40553.4013 1176.2897 0.0000 0.0000 -538483.1421 0.0000 -538483.1421 -538483.1421 0.0000 -2853.0662 -2863.5598 2381639.4711 -2853.0662 -2863.5598
ENERGY: 1940 17458.6460 19348.5473 22389.2975 51.0287 -639528.6397 40557.5891 1175.7344 0.0000 0.0000 -538547.7968 0.0000 -538547.7968 -538547.7968 0.0000 -2883.3373 -2840.7938 2381639.4711 -2883.3373 -2840.7938
ENERGY: 1959 17344.1501 19407.5717 22388.4686 50.5272 -639534.9745 40556.3153 1175.4266 0.0000 0.0000 -538612.5151 0.0000 -538612.5151 -538612.5151 0.0000 -2837.3649 -2846.8512 2381639.4711 -2837.3649 -2846.8512
ENERGY: 1979 17288.9064 19466.9295 22386.2690 51.6545 -639573.0816 40571.4838 1174.8315 0.0000 0.0000 -538633.0070 0.0000 -538633.0070 -538633.0070 0.0000 -2784.4633 -2827.1096 2381639.4711 -2784.4633 -2827.1096
ENERGY: 1999 17425.2893 19370.1008 22385.6982 50.7032 -639724.8684 40574.6510 1174.7156 0.0000 0.0000 -538743.7103 0.0000 -538743.7103 -538743.7103 0.0000 -2962.1995 -2939.2740 2381639.4711 -2962.1995 -2939.2740
TCL: membrane dimensions at step 2000: {17.1457341089 -17.1193729673}
TCL: Waters to push Up:   69958 71338 72484 76327 77404 78400 80080 81949 85750 87037 88789 91774 92713 98509 99928 103048 104035 107326 115900 116467 120886 126409 126589 126718 127981 128041 128704 129259 130000 130957 133786 134797 138649 140095 141940 144286 145993 150289 156427 158536 158659 163807 167653 169741 170134 171220 172429
TCL: Waters to push Down: 68020 68053 68584 74722 76810 78079 79207 79657 80590 81073 81676 85636 92947 93001 93535 93760 95836 97315 100492 101785 106225 108022 108154 109315 111889 114961 116536 117526 119521 120943 121048 122527 124102 124564 125536 125824 126442 126697 129580 129601 130081 130657 131926 132988 133939 136036 138472 138541 139366 142294 147463 151276 151297 151495 152200 152896 159430 160336 162829 163459 167806 167848
TCL: Reassign waters to push at step: 2000
ETITLE: TS BOND ANGLE DIHED IMPRP ELECT VDW BOUNDARY MISC KINETIC TOTAL TEMP POTENTIAL TOTAL3 TEMPAVG PRESSURE GPRESSURE VOLUME PRESSAVG GPRESSAVG
ENERGY: 2000 17424.8379 19370.7983 22385.7033 50.7035 -639725.0014 40574.5095 1174.7167 0.0000 0.0000 -538743.7323 0.0000 -538743.7323 -538743.7323 0.0000 -2962.0392 -2939.1154 2381639.4711 -2962.0392 -2939.1154
ENERGY: 2020 17513.2661 19495.6505 22382.5765 51.6912 -639985.9265 40603.4927 1174.6600 0.0000 0.0000 -538764.5896 0.0000 -538764.5896 -538764.5896 0.0000 -2889.5519 -2840.7470 2381639.4711 -2889.5519 -2840.7470
ENERGY: 2040 17312.6320 19500.3524 22380.4182 51.2262 -639890.3914 40606.2141 1174.5780 0.0000 0.0000 -538864.9706 0.0000 -538864.9706 -538864.9706 0.0000 -2820.5323 -2842.1343 2381639.4711 -2820.5323 -2842.1343
ENERGY: 2059 17384.2387 19414.3034 22379.4145 50.7133 -639970.1388 40644.8172 1174.6401 0.0000 0.0000 -538922.0116 0.0000 -538922.0116 -538922.0116 0.0000 -2829.7084 -2830.7352 2381639.4711 -2829.7084 -2830.7352
ENERGY: 2079 17415.7780 19410.1572 22376.0333 51.3597 -640144.1624 40718.1050 1174.7769 0.0000 0.0000 -538997.9524 0.0000 -538997.9524 -538997.9524 0.0000 -2846.1487 -2830.6996 2381639.4711 -2846.1487 -2830.6996
ENERGY: 2099 17395.7432 19515.0100 22373.7717 50.8488 -640340.6338 40778.7254 1175.0836 0.0000 0.0000 -539051.4511 0.0000 -539051.4511 -539051.4511 0.0000 -2910.2672 -2905.2374 2381639.4711 -2910.2672 -2905.2374
TCL: membrane dimensions at step 2100: {17.1446795076 -17.1186564313}
TCL: Waters to push Up:   69514 69958 72484 76327 78400 80080 81181 81949 85264 87037 88789 91774 92713 93454 98509 99928 107326 110470 111970 115900 116467 120886 122683 126508 126589 127981 128704 130000 130957 140095 140233 141940 144553 145993 150289 156427 158659 162958 163807 166459 166585 167653 169741 170134 171220 171415 172429
TCL: Waters to push Down: 68053 68584 74722 78079 79207 79657 80590 81073 81676 91828 93535 93760 94138 95836 97315 100492 106225 108022 108154 109315 111889 113326 116536 118807 120943 121246 122527 123049 124102 124564 125536 125824 126442 126697 129580 130657 132841 132988 133939 134557 136036 138472 139366 142294 147718 151276 151297 151456 151495 152200 152896 153856 159430 160336 162829 164701 167797 167848 172663
TCL: Reassign waters to push at step: 2100
ETITLE: TS BOND ANGLE DIHED IMPRP ELECT VDW BOUNDARY MISC KINETIC TOTAL TEMP POTENTIAL TOTAL3 TEMPAVG PRESSURE GPRESSURE VOLUME PRESSAVG GPRESSAVG
ENERGY: 2100 17393.6523 19513.5397 22373.7909 50.8487 -640336.0871 40777.7033 1175.0778 0.0000 0.0000 -539051.4745 0.0000 -539051.4745 -539051.4745 0.0000 -2909.7857 -2905.5119 2381639.4711 -2909.7857 -2905.5119
ENERGY: 2120 17383.8225 19422.9079 22372.9907 51.0671 -640376.6918 40857.9642 1175.5872 0.0000 0.0000 -539112.3521 0.0000 -539112.3521 -539112.3521 0.0000 -2801.5396 -2813.0662 2381639.4711 -2801.5396 -2813.0662
ENERGY: 2140 17434.5442 19396.8114 22371.1364 51.1245 -640551.2877 40952.8361 1176.0273 0.0000 0.0000 -539168.8077 0.0000 -539168.8077 -539168.8077 0.0000 -2814.6328 -2796.7636 2381639.4711 -2814.6328 -2796.7636
ENERGY: 2159 17439.8501 19527.1340 22370.2318 50.9321 -640848.1539 41060.4322 1176.7845 0.0000 0.0000 -539222.7891 0.0000 -539222.7891 -539222.7891 0.0000 -2810.4483 -2799.3243 2381639.4711 -2810.4483 -2799.3243
ENERGY: 2179 17408.9783 19514.4897 22369.4849 50.9880 -640929.6649 41131.3744 1177.2899 0.0000 0.0000 -539277.0597 0.0000 -539277.0597 -539277.0597 0.0000 -2772.6358 -2778.5694 2381639.4711 -2772.6358 -2778.5694
ENERGY: 2199 17487.0884 19400.7601 22368.2317 51.0652 -641024.5593 41146.2240 1177.0772 0.0000 0.0000 -539394.1126 0.0000 -539394.1126 -539394.1126 0.0000 -2896.6924 -2870.3965 2381639.4711 -2896.6924 -2870.3965
TCL: membrane dimensions at step 2200: {17.1442737643 -17.1179997991}
TCL: Waters to push Up:   69514 69958 72484 76327 77404 78400 80080 81181 81949 81964 85264 87037 91774 92713 93454 96805 99928 104035 107326 115900 116467 118486 120886 126589 127981 128704 130000 130957 140095 140233 141940 144286 144553 145066 145993 150289 156427 158659 162958 163807 166459 167335 169741 170134 171220 171415 171877
TCL: Waters to push Down: 68053 68335 73690 78079 79207 79657 80590 81073 81676 85636 91828 92566 93535 93760 94138 95836 97315 100492 106225 108022 108154 109315 111889 113326 114799 116536 118807 120172 120943 121246 122527 124102 124564 125536 125824 126442 126697 129580 130081 130657 132841 132988 133939 138472 139366 142294 147718 151297 151456 151495 152200 152896 153856 159430 160336 167797 167806 167848 172663
TCL: Reassign waters to push at step: 2200
ETITLE: TS BOND ANGLE DIHED IMPRP ELECT VDW BOUNDARY MISC KINETIC TOTAL TEMP POTENTIAL TOTAL3 TEMPAVG PRESSURE GPRESSURE VOLUME PRESSAVG GPRESSAVG
ENERGY: 2200 17622.2461 19448.7104 22368.4767 51.1843 -641150.1575 41173.5329 1177.1293 0.0000 0.0000 -539308.8777 0.0000 -539308.8777 -539308.8777 0.0000 -2923.9704 -2875.2731 2381639.4711 -2923.9704 -2875.2731
ENERGY: 2220 17374.1542 19513.8854 22367.5596 51.0910 -641145.6925 41180.1795 1177.0907 0.0000 0.0000 -539481.7322 0.0000 -539481.7322 -539481.7322 0.0000 -2731.9427 -2761.6894 2381639.4711 -2731.9427 -2761.6894
ENERGY: 2240 17431.0736 19485.7215 22366.0402 51.2133 -641281.1518 41223.0926 1176.9226 0.0000 0.0000 -539547.0881 0.0000 -539547.0881 -539547.0881 0.0000 -2774.2370 -2776.6923 2381639.4711 -2774.2370 -2776.6923
ENERGY: 2259 17508.3947 19395.8864 22365.6536 50.9408 -641383.1114 41282.0631 1176.7632 0.0000 0.0000 -539603.4095 0.0000 -539603.4095 -539603.4095 0.0000 -2796.5572 -2766.6890 2381639.4711 -2796.5572 -2766.6890
ENERGY: 2279 17432.3389 19492.8442 22364.5690 50.8464 -641511.7147 41340.5938 1176.4441 0.0000 0.0000 -539654.0783 0.0000 -539654.0783 -539654.0783 0.0000 -2746.2632 -2757.2425 2381639.4711 -2746.2632 -2757.2425
ENERGY: 2299 17429.5068 19500.1767 22362.4285 51.0095 -641646.6174 41414.9821 1176.1285 0.0000 0.0000 -539712.3853 0.0000 -539712.3853 -539712.3853 0.0000 -2839.0901 -2844.8169 2381639.4711 -2839.0901 -2844.8169
TCL: membrane dimensions at step 2300: {17.1444621966 -17.1178137549}
TCL: Waters to push Up:   69958 71338 72484 76327 78400 80080 81181 81949 85750 87037 88789 92713 93454 98509 99928 103048 107326 116467 120886 126589 126718 127981 128041 128704 130000 130957 133786 134797 140095 141940 145993 150289 156427 158536 158659 163807 166585 167653 169741 170095 170134 171220 172429
TCL: Waters to push Down: 68053 68584 74722 76810 78079 79207 79657 80590 81073 81676 85636 91828 92947 93001 93535 93760 94138 95836 97315 100492 101785 106225 108022 108154 109315 111889 113326 116536 119521 120943 122527 124102 124564 125536 125824 126442 126697 129580 129601 130081 130657 132988 133939 134557 136036 138472 138541 139366 142294 147463 151495 152200 152896 159430 160336 162829 163459 167806 167848
TCL: Reassign waters to push at step: 2300
ETITLE: TS BOND ANGLE DIHED IMPRP ELECT VDW BOUNDARY MISC KINETIC TOTAL TEMP POTENTIAL TOTAL3 TEMPAVG PRESSURE GPRESSURE VOLUME PRESSAVG GPRESSAVG
ENERGY: 2300 17445.3230 19484.4207 22362.3478 50.9682 -641660.6399 41424.5266 1176.1102 0.0000 0.0000 -539716.9434 0.0000 -539716.9434 -539716.9434 0.0000 -2841.9697 -2842.3876 2381639.4711 -2841.9697 -2842.3876
ENERGY: 2320 17487.9292 19384.3192 22361.7256 50.7741 -641725.3094 41496.0119 1175.8989 0.0000 0.0000 -539768.6504 0.0000 -539768.6504 -539768.6504 0.0000 -2754.9586 -2747.7230 2381639.4711 -2754.9586 -2747.7230
ENERGY: 2340 17475.9892 19487.5608 22360.1793 51.1302 -641927.3945 41562.3525 1175.6640 0.0000 0.0000 -539814.5185 0.0000 -539814.5185 -539814.5185 0.0000 -2741.5853 -2735.0354 2381639.4711 -2741.5853 -2735.0354
ENERGY: 2359 17432.7791 19552.3734 22358.6628 51.1520 -642054.1652 41631.8724 1175.5881 0.0000 0.0000 -539851.7373 0.0000 -539851.7373 -539851.7373 0.0000 -2722.3279 -2736.7177 2381639.4711 -2722.3279 -2736.7177
ENERGY: 2379 17490.9666 19416.2474 22356.6636 51.1229 -642134.6641 41731.0662 1175.6785 0.0000 0.0000 -539912.9189 0.0000 -539912.9189 -539912.9189 0.0000 -2712.6383 -2713.0922 2381639.4711 -2712.6383 -2713.0922
ENERGY: 2399 17452.1258 19560.8839 22353.4984 51.1994 -642388.6429 41872.1296 1176.3443 0.0000 0.0000 -539922.4616 0.0000 -539922.4616 -539922.4616 0.0000 -2786.4284 -2810.8921 2381639.4711 -2786.4284 -2810.8921
TCL: membrane dimensions at step 2400: {17.144363979 -17.1176762496}
TCL: Waters to push Up:   69958 71338 72484 76327 77404 78400 80080 83890 87037 88789 91774 92713 103048 104035 110470 111970 116467 118486 119221 120886 126409 126589 127981 128704 129259 130000 130957 138649 140095 140233 141940 144286 144553 145993 150289 156427 158659 163807 167653 169741 170095 170134 171220 172429
TCL: Waters to push Down: 68020 71503 74431 74722 75793 78079 79207 79657 80590 81676 86569 93001 93535 93760 94138 95836 97315 99142 100492 106225 108022 108154 109315 111889 114961 116536 119521 120172 120943 121048 121246 122527 124102 124564 125536 125824 126442 126697 129580 129601 130081 130657 131926 132988 133939 134557 136036 138472 138541 139366 142294 151276 151456 151495 152200 152896 159430 160336 165844 167848
TCL: Reassign waters to push at step: 2400
ETITLE: TS BOND ANGLE DIHED IMPRP ELECT VDW BOUNDARY MISC KINETIC TOTAL TEMP POTENTIAL TOTAL3 TEMPAVG PRESSURE GPRESSURE VOLUME PRESSAVG GPRESSAVG
ENERGY: 2400 17480.1586 19479.6357 22354.3149 51.0802 -642328.1238 41826.2380 1176.0924 0.0000 0.0000 -539960.6039 0.0000 -539960.6039 -539960.6039 0.0000 -2807.4556 -2805.3229 2381639.4711 -2807.4556 -2805.3229
ENERGY: 2420 17482.4120 19574.6279 22352.7744 50.9625 -642549.9757 41907.3172 1176.3984 0.0000 0.0000 -540005.4834 0.0000 -540005.4834 -540005.4834 0.0000 -2696.6884 -2701.7205 2381639.4711 -2696.6884 -2701.7205
ENERGY: 2440 17522.6030 19452.9612 22351.4055 50.9171 -642591.3116 41988.8400 1176.7246 0.0000 0.0000 -540047.8602 0.0000 -540047.8602 -540047.8602 0.0000 -2697.4529 -2689.3846 2381639.4711 -2697.4529 -2689.3846
ENERGY: 2459 17510.0934 19474.7071 22350.5092 50.8855 -642740.7061 42077.5721 1177.3573 0.0000 0.0000 -540099.5814 0.0000 -540099.5814 -540099.5814 0.0000 -2686.3171 -2680.1671 2381639.4711 -2686.3171 -2680.1671
ENERGY: 2479 17469.9643 19588.1317 22348.8794 51.1243 -642940.8864 42191.9115 1178.1741 0.0000 0.0000 -540112.7010 0.0000 -540112.7010 -540112.7010 0.0000 -2632.4856 -2665.6003 2381639.4711 -2632.4856 -2665.6003
ENERGY: 2499 17554.7933 19464.1736 22348.2896 50.9176 -643006.9527 42228.4685 1178.4446 0.0000 0.0000 -540181.8656 0.0000 -540181.8656 -540181.8656 0.0000 -2768.6261 -2746.3180 2381639.4711 -2768.6261 -2746.3180
TCL: membrane dimensions at step 2500: {17.1439757519 -17.1178757343}
TCL: Waters to push Up:   69514 69958 72484 76327 78400 80080 85087 85264 87037 91774 92713 93454 99928 107326 115900 116467 120886 126409 126508 126589 127981 128704 130000 130957 134797 138649 140095 140233 141940 144286 145066 145993 150289 156427 158659 162958 163807 166459 167335 169741 170134 171220 171415 171877 172429
TCL: Waters to push Down: 68053 68335 76810 78079 79207 79657 80590 81073 81676 85636 91828 92236 92566 93001 93535 93760 94138 95836 97315 100492 101785 106225 108022 108154 109315 111889 114961 116536 118807 120943 121246 122527 123049 124102 124564 125536 125824 126442 126697 129580 130657 131926 132841 132988 138472 139366 142294 151297 151495 152200 152896 159430 160336 164701 165844 167848
TCL: Reassign waters to push at step: 2500
ETITLE: TS BOND ANGLE DIHED IMPRP ELECT VDW BOUNDARY MISC KINETIC TOTAL TEMP POTENTIAL TOTAL3 TEMPAVG PRESSURE GPRESSURE VOLUME PRESSAVG GPRESSAVG
ENERGY: 2500 17554.3248 19464.7490 22348.2915 50.9162 -643006.7424 42228.1396 1178.4422 0.0000 0.0000 -540181.8790 0.0000 -540181.8790 -540181.8790 0.0000 -2768.4623 -2746.3524 2381639.4711 -2768.4623 -2746.3524
ENERGY: 2520 17548.2019 19425.1957 22347.7958 51.1025 -643034.9786 42276.4572 1178.6614 0.0000 0.0000 -540207.5640 0.0000 -540207.5640 -540207.5640 0.0000 -2673.4656 -2657.0039 2381639.4711 -2673.4656 -2657.0039
ENERGY: 2540 17480.3401 19596.7681 22346.6522 51.1930 -643286.2132 42377.8002 1179.1039 0.0000 0.0000 -540254.3557 0.0000 -540254.3557 -540254.3557 0.0000 -2612.1941 -2634.8657 2381639.4711 -2612.1941 -2634.8657
ENERGY: 2559 17600.3153 19499.1673 22344.6379 51.6797 -643440.9365 42493.6661 1179.5578 0.0000 0.0000 -540271.9123 0.0000 -540271.9123 -540271.9123 0.0000 -2650.7216 -2620.5346 2381639.4711 -2650.7216 -2620.5346
ENERGY: 2579 17569.0041 19449.4171 22344.0039 51.3780 -643448.2259 42528.9468 1179.3643 0.0000 0.0000 -540326.1116 0.0000 -540326.1116 -540326.1116 0.0000 -2614.6068 -2604.4340 2381639.4711 -2614.6068 -2604.4340
ENERGY: 2599 17525.1824 19553.5483 22342.7815 51.1467 -643644.4505 42621.1465 1179.3064 0.0000 0.0000 -540371.3387 0.0000 -540371.3387 -540371.3387 0.0000 -2671.2896 -2676.6896 2381639.4711 -2671.2896 -2676.6896
TCL: membrane dimensions at step 2600: {17.1433635009 -17.1176148074}
TCL: Waters to push Up:   69514 69958 72484 76327 76450 78400 80080 81181 85750 87037 92713 93454 96805 98509 99928 104035 107326 115900 116467 118486 120886 126589 127981 128041 128704 129517 130000 130957 140095 140233 141940 142423 144286 145066 145360 145993 150289 156427 158659 162958 166459 167335 167653 169741 170134 171220 171415 171877 172429
TCL: Waters to push Down: 68053 68335 68584 78079 79207 79657 80590 81073 81493 81676 85636 92947 93535 93760 95836 97315 100492 106225 108022 108154 109315 111889 113326 114799 116536 120172 120943 121246 122527 124102 124564 125536 125824 126442 126697 129580 129601 130081 130657 132841 132988 133939 135448 137812 138472 139366 142294 151297 151456 151495 152200 152896 159430 160336 162829 167806 167848
TCL: Reassign waters to push at step: 2600
ETITLE: TS BOND ANGLE DIHED IMPRP ELECT VDW BOUNDARY MISC KINETIC TOTAL TEMP POTENTIAL TOTAL3 TEMPAVG PRESSURE GPRESSURE VOLUME PRESSAVG GPRESSAVG
ENERGY: 2600 17516.9735 19574.8529 22342.7016 51.1666 -643671.7899 42633.5957 1179.3198 0.0000 0.0000 -540373.1799 0.0000 -540373.1799 -540373.1799 0.0000 -2668.4327 -2675.7788 2381639.4711 -2668.4327 -2675.7788
ENERGY: 2620 17521.2485 19562.5247 22341.9245 51.2369 -643730.9433 42665.6352 1179.2348 0.0000 0.0000 -540409.1387 0.0000 -540409.1387 -540409.1387 0.0000 -2573.6427 -2582.6923 2381639.4711 -2573.6427 -2582.6923
ENERGY: 2640 17625.0936 19452.2666 22341.5197 51.5067 -643773.0085 42654.5233 1179.0890 0.0000 0.0000 -540469.0097 0.0000 -540469.0097 -540469.0097 0.0000 -2606.3440 -2589.3649 2381639.4711 -2606.3440 -2589.3649
ENERGY: 2659 17560.9583 19524.7860 22341.0337 51.4822 -643845.7047 42658.2584 1179.0587 0.0000 0.0000 -540530.1275 0.0000 -540530.1275 -540530.1275 0.0000 -2602.8136 -2593.2670 2381639.4711 -2602.8136 -2593.2670
ENERGY: 2679 17508.2618 19594.9842 22341.3777 51.3018 -643904.1843 42653.2317 1178.5175 0.0000 0.0000 -540576.5097 0.0000 -540576.5097 -540576.5097 0.0000 -2573.2940 -2596.5139 2381639.4711 -2573.2940 -2596.5139
ENERGY: 2699 17586.9859 19479.4985 22340.9177 51.2511 -643913.7052 42659.2801 1178.0469 0.0000 0.0000 -540617.7250 0.0000 -540617.7250 -540617.7250 0.0000 -2700.6325 -2688.2011 2381639.4711 -2700.6325 -2688.2011
TCL: membrane dimensions at step 2700: {17.1430151152 -17.117478244}
TCL: Waters to push Up:   69514 69958 72484 76327 77404 78400 80080 85264 87037 91774 92713 93454 99928 107326 110470 115900 116467 120886 126508 126589 127981 128704 130000 130957 134797 138649 140095 141940 144286 144553 145993 150289 156427 158659 162958 163807 166459 167335 169741 170095 170134 171220 171415
TCL: Waters to push Down: 68053 68335 76810 78079 79207 79657 80590 81073 81676 85636 91828 92566 93001 93535 93760 94138 95836 97315 100492 101785 106225 108022 108154 109315 111889 116536 118807 120943 121246 122527 123049 124102 124564 125536 125824 126442 126697 129580 130657 132841 132988 133939 138472 139366 142294 151297 151495 152200 152896 159430 160336 163459 167806 167848
TCL: Reassign waters to push at step: 2700
ETITLE: TS BOND ANGLE DIHED IMPRP ELECT VDW BOUNDARY MISC KINETIC TOTAL TEMP POTENTIAL TOTAL3 TEMPAVG PRESSURE GPRESSURE VOLUME PRESSAVG GPRESSAVG
ENERGY: 2700 17580.6277 19462.1720 22340.7433 51.2479 -643899.6386 42658.7026 1177.9916 0.0000 0.0000 -540628.1534 0.0000 -540628.1534 -540628.1534 0.0000 -2701.2885 -2689.5553 2381639.4711 -2701.2885 -2689.5553
ENERGY: 2720 17570.0792 19529.5382 22340.1637 51.0577 -644000.4167 42662.4925 1177.3962 0.0000 0.0000 -540669.6892 0.0000 -540669.6892 -540669.6892 0.0000 -2612.9428 -2607.8921 2381639.4711 -2612.9428 -2607.8921
ENERGY: 2740 17542.4333 19589.9771 22340.0272 51.0653 -644075.3918 42676.4402 1176.8392 0.0000 0.0000 -540698.6096 0.0000 -540698.6096 -540698.6096 0.0000 -2591.1105 -2602.1988 2381639.4711 -2591.1105 -2602.1988
ENERGY: 2759 17573.8895 19477.8899 22339.1896 51.1646 -644033.3887 42686.4636 1176.1217 0.0000 0.0000 -540728.6698 0.0000 -540728.6698 -540728.6698 0.0000 -2617.0652 -2607.5886 2381639.4711 -2617.0652 -2607.5886
ENERGY: 2779 17590.7108 19486.8360 22338.4819 51.1806 -644085.7115 42688.2132 1175.4178 0.0000 0.0000 -540754.8711 0.0000 -540754.8711 -540754.8711 0.0000 -2611.2345 -2602.1792 2381639.4711 -2611.2345 -2602.1792
ENERGY: 2799 17551.9360 19591.7999 22338.2041 51.1529 -644180.8941 42681.3504 1174.7233 0.0000 0.0000 -540791.7274 0.0000 -540791.7274 -540791.7274 0.0000 -2680.6571 -2687.0267 2381639.4711 -2680.6571 -2687.0267
TCL: membrane dimensions at step 2800: {17.1424655591 -17.1171735023}
TCL: Waters to push Up:   69958 71338 72484 76327 77404 78400 80080 83890 85087 87037 88789 91774 92713 103048 104035 111970 116467 118486 119221 120886 126409 126589 127981 128704 130000 130957 133786 138649 140095 140233 141940 145993 150289 156427 158659 163807 167653 169741 170095 170134 171220 172429
TCL: Waters to push Down: 71503 74431 74722 78079 79207 79657 80590 81676 86569 93001 93535 93760 94138 95836 97315 99142 100492 106225 108022 108154 109315 111889 114961 116536 119521 120172 120943 121246 122527 124102 124564 125536 125824 126442 126697 129580 129601 130081 130657 131926 132988 133939 134557 136036 138472 138541 139366 142294 151276 151456 151495 152200 152896 159430 160336 164701 165844 167848
TCL: Reassign waters to push at step: 2800
ETITLE: TS BOND ANGLE DIHED IMPRP ELECT VDW BOUNDARY MISC KINETIC TOTAL TEMP POTENTIAL TOTAL3 TEMPAVG PRESSURE GPRESSURE VOLUME PRESSAVG GPRESSAVG
ENERGY: 2800 17567.1714 19603.6405 22338.3003 51.2836 -644206.6329 42679.5986 1174.6001 0.0000 0.0000 -540792.0383 0.0000 -540792.0383 -540792.0383 0.0000 -2688.1860 -2689.5966 2381639.4711 -2688.1860 -2689.5966
ENERGY: 2820 17568.7959 19505.7546 22338.5154 51.3366 -644137.4420 42672.3732 1174.0378 0.0000 0.0000 -540826.6282 0.0000 -540826.6282 -540826.6282 0.0000 -2610.5607 -2604.4950 2381639.4711 -2610.5607 -2604.4950
ENERGY: 2840 17574.2219 19477.4147 22339.4259 51.1495 -644136.4851 42666.6407 1173.5792 0.0000 0.0000 -540854.0533 0.0000 -540854.0533 -540854.0533 0.0000 -2585.3582 -2590.5122 2381639.4711 -2585.3582 -2590.5122
ENERGY: 2859 17571.2858 19590.6574 22339.4998 51.2923 -644285.8246 42676.1077 1173.3969 0.0000 0.0000 -540883.5846 0.0000 -540883.5846 -540883.5846 0.0000 -2605.7256 -2602.7537 2381639.4711 -2605.7256 -2602.7537
ENERGY: 2879 17560.8029 19556.0942 22339.5909 51.2462 -644277.2763 42679.8404 1173.1147 0.0000 0.0000 -540916.5869 0.0000 -540916.5869 -540916.5869 0.0000 -2583.7179 -2587.1959 2381639.4711 -2583.7179 -2587.1959
ENERGY: 2899 17591.3294 19464.4439 22339.8164 50.9040 -644263.8674 42696.3785 1172.9666 0.0000 0.0000 -540948.0286 0.0000 -540948.0286 -540948.0286 0.0000 -2677.8424 -2675.1990 2381639.4711 -2677.8424 -2675.1990
TCL: membrane dimensions at step 2900: {17.1409730116 -17.116323125}
TCL: Waters to push Up:   69958 71338 72484 76327 78400 80080 81181 81949 85750 87037 88789 92713 93454 96028 98509 99928 103048 104035 107326 116467 120886 126409 126589 126718 127981 128041 128704 129259 130000 130957 134797 140095 140233 141940 144286 145066 145993 150289 156427 158536 158659 163807 166585 167653 169741 170134 171220 171877 172429
TCL: Waters to push Down: 68020 68053 68335 68584 74722 75793 76810 78079 79207 79657 80590 81073 81676 85636 92947 93001 93535 93760 94138 95836 97315 100492 101785 106225 108022 108154 109315 111889 113326 114961 116536 119521 120943 121048 122527 124102 124564 125536 125824 126442 126697 129580 129601 130081 130657 131926 132988 133939 134557 136036 138472 138541 139366 142294 147463 151276 151495 152200 152896 159430 160336 162829 163459 165844 167848
TCL: Reassign waters to push at step: 2900
ETITLE: TS BOND ANGLE DIHED IMPRP ELECT VDW BOUNDARY MISC KINETIC TOTAL TEMP POTENTIAL TOTAL3 TEMPAVG PRESSURE GPRESSURE VOLUME PRESSAVG GPRESSAVG
ENERGY: 2900 17591.2769 19467.0008 22339.7224 50.9256 -644275.4998 42696.3895 1172.9397 0.0000 0.0000 -540957.2448 0.0000 -540957.2448 -540957.2448 0.0000 -2676.9381 -2672.8477 2381639.4711 -2676.9381 -2672.8477
ENERGY: 2920 17563.7770 19564.1755 22338.8675 51.2802 -644383.9687 42706.3318 1172.6487 0.0000 0.0000 -540986.8880 0.0000 -540986.8880 -540986.8880 0.0000 -2575.1230 -2579.6024 2381639.4711 -2575.1230 -2579.6024
ENERGY: 2940 17567.0677 19592.3947 22338.9579 51.2588 -644457.9263 42721.0414 1172.4776 0.0000 0.0000 -541014.7281 0.0000 -541014.7281 -541014.7281 0.0000 -2563.0806 -2567.9854 2381639.4711 -2563.0806 -2567.9854
ENERGY: 2959 17593.2061 19489.1687 22339.2303 51.1601 -644433.8773 42743.3827 1172.3823 0.0000 0.0000 -541045.3470 0.0000 -541045.3470 -541045.3470 0.0000 -2570.3351 -2564.9829 2381639.4711 -2570.3351 -2564.9829
ENERGY: 2979 17577.8025 19528.1011 22338.2034 51.4210 -644516.0404 42775.0006 1172.1150 0.0000 0.0000 -541073.3968 0.0000 -541073.3968 -541073.3968 0.0000 -2555.9946 -2558.5017 2381639.4711 -2555.9946 -2558.5017
ENERGY: 2999 17581.1723 19592.7231 22337.8934 51.0979 -644635.4010 42802.7434 1172.1318 0.0000 0.0000 -541097.6391 0.0000 -541097.6391 -541097.6391 0.0000 -2641.7862 -2643.1310 2381639.4711 -2641.7862 -2643.1310
TCL: membrane dimensions at step 3000: {17.1401364048 -17.1158036836}
TCL: Waters to push Up:   69514 69958 72484 76327 78400 80080 81181 81949 81964 85264 87037 88789 92713 93454 96805 98509 99928 107326 110470 111970 116467 118486 120886 126589 127981 128041 128704 130000 130957 140095 140233 141940 144286 144553 145066 145993 150289 156427 158659 163807 166459 167335 169741 170134 171220 171415 172429
TCL: Waters to push Down: 68053 68335 78079 79207 79657 80590 81073 81676 85636 92566 93535 93760 94138 95836 97315 100492 106225 108022 108154 109315 111889 113326 114799 116536 118807 120172 120943 122527 124102 124564 125536 125824 126442 126697 129580 130081 130657 132841 132988 133939 136036 138472 139366 142294 147718 151297 151456 151495 152200 152896 159430 160336 162829 167797 167806 167848 172663
TCL: Reassign waters to push at step: 3000
ETITLE: TS BOND ANGLE DIHED IMPRP ELECT VDW BOUNDARY MISC KINETIC TOTAL TEMP POTENTIAL TOTAL3 TEMPAVG PRESSURE GPRESSURE VOLUME PRESSAVG GPRESSAVG
ENERGY: 3000 17580.5603 19592.0978 22337.8918 51.0999 -644633.7990 42802.3779 1172.1302 0.0000 0.0000 -541097.6410 0.0000 -541097.6410 -541097.6410 0.0000 -2641.7199 -2643.2550 2381639.4711 -2641.7199 -2643.2550
ENERGY: 3020 17615.8403 19502.7977 22338.6823 51.4284 -644642.1800 42856.1303 1172.2238 0.0000 0.0000 -541105.0772 0.0000 -541105.0772 -541105.0772 0.0000 -2561.9803 -2559.4831 2381639.4711 -2561.9803 -2559.4831
ENERGY: 3040 17624.4748 19504.0023 22338.0176 51.2646 -644703.2930 42865.3444 1172.1305 0.0000 0.0000 -541148.0588 0.0000 -541148.0588 -541148.0588 0.0000 -2566.6885 -2551.0952 2381639.4711 -2566.6885 -2551.0952
ENERGY: 3059 17593.3515 19552.8342 22338.3013 51.1933 -644785.2570 42905.4864 1172.2463 0.0000 0.0000 -541171.8439 0.0000 -541171.8439 -541171.8439 0.0000 -2543.9675 -2543.5223 2381639.4711 -2543.9675 -2543.5223
ENERGY: 3079 17793.2095 19561.5781 22338.1236 51.5788 -644894.3053 42945.2336 1172.2767 0.0000 0.0000 -541032.3050 0.0000 -541032.3050 -541032.3050 0.0000 -2546.2814 -2540.1792 2381639.4711 -2546.2814 -2540.1792
ENERGY: 3099 17615.9189 19514.8423 22337.3796 51.4849 -644880.0993 42943.4257 1172.2570 0.0000 0.0000 -541244.7909 0.0000 -541244.7909 -541244.7909 0.0000 -2629.9624 -2621.4122 2381639.4711 -2629.9624 -2621.4122
TCL: membrane dimensions at step 3100: {17.1401013193 -17.1154618976}
TCL: Waters to push Up:   69514 69958 72484 76327 76450 77404 78400 80080 81181 81949 85264 87037 91774 92713 93454 96028 98509 99928 107326 115900 116467 118486 119221 120886 126589 127981 128704 130000 130957 140095 140233 141940 144286 144553 145993 150289 156427 158659 162958 163807 166459 167335 169741 170095 170134 171220 171415 171877
TCL: Waters to push Down: 68053 73690 78079 79207 79657 80590 81073 81676 85636 91828 92566 93001 93535 93760 94138 95836 97315 100492 106225 108022 108154 109315 111889 113326 114799 116536 118807 120172 120943 121246 122527 124102 124564 125536 125824 126442 126697 129580 130081 130657 132841 132988 133939 138472 139366 142294 151297 151456 151495 152200 152896 159430 160336 167797 167806 167848
TCL: Reassign waters to push at step: 3100
ETITLE: TS BOND ANGLE DIHED IMPRP ELECT VDW BOUNDARY MISC KINETIC TOTAL TEMP POTENTIAL TOTAL3 TEMPAVG PRESSURE GPRESSURE VOLUME PRESSAVG GPRESSAVG
ENERGY: 3100 17617.9303 19509.0023 22337.2634 51.4837 -644882.2217 42943.4315 1172.2545 0.0000 0.0000 -541250.8560 0.0000 -541250.8560 -541250.8560 0.0000 -2632.2562 -2621.8916 2381639.4711 -2632.2562 -2621.8916
ENERGY: 3120 17610.7671 19540.8481 22336.6560 51.2588 -644967.6005 42959.8361 1172.3799 0.0000 0.0000 -541295.8545 0.0000 -541295.8545 -541295.8545 0.0000 -2544.4885 -2542.8562 2381639.4711 -2544.4885 -2542.8562
ENERGY: 3140 17594.5074 19595.7839 22335.7105 51.2543 -645065.1762 42984.3994 1172.2562 0.0000 0.0000 -541331.2645 0.0000 -541331.2645 -541331.2645 0.0000 -2528.8392 -2536.5466 2381639.4711 -2528.8392 -2536.5466
ENERGY: 3159 17658.3676 19489.6814 22335.4328 51.1496 -645085.1057 43025.7039 1172.0814 0.0000 0.0000 -541352.6890 0.0000 -541352.6890 -541352.6890 0.0000 -2561.0689 -2537.5040 2381639.4711 -2561.0689 -2537.5040
ENERGY: 3179 17606.6061 19559.4962 22335.2154 51.1320 -645158.3469 43042.5106 1171.9387 0.0000 0.0000 -541391.4478 0.0000 -541391.4478 -541391.4478 0.0000 -2527.1760 -2531.8801 2381639.4711 -2527.1760 -2531.8801
ENERGY: 3199 17603.0078 19582.9186 22333.7808 51.3662 -645238.3396 43077.2724 1171.6683 0.0000 0.0000 -541418.3255 0.0000 -541418.3255 -541418.3255 0.0000 -2619.4534 -2620.9081 2381639.4711 -2619.4534 -2620.9081
TCL: membrane dimensions at step 3200: {17.1398648363 -17.1153584221}
TCL: Waters to push Up:   69958 71338 72484 76327 78400 80080 81181 81949 85750 87037 88789 91774 92713 93454 99928 104035 107326 115900 116467 118486 120886 126589 126718 127981 128041 128704 130000 130957 134797 140095 140233 141940 144286 145066 145993 150289 156427 158536 158659 162958 163807 166585 167653 169741 170134 171220 172429
TCL: Waters to push Down: 68020 68053 68335 68584 74722 76810 78079 79207 79657 80590 81073 81676 85636 86569 92947 93535 93760 94138 95836 97315 100492 101785 106225 108022 108154 109315 111889 113326 116536 119521 120943 122527 124102 124564 125536 125824 126442 126697 129580 129601 130081 130657 132988 133939 134557 136036 138472 138541 139366 142294 147463 151495 152200 152896 159430 160336 162829 163459 167848
TCL: Reassign waters to push at step: 3200
ETITLE: TS BOND ANGLE DIHED IMPRP ELECT VDW BOUNDARY MISC KINETIC TOTAL TEMP POTENTIAL TOTAL3 TEMPAVG PRESSURE GPRESSURE VOLUME PRESSAVG GPRESSAVG
ENERGY: 3200 17602.5110 19583.3818 22333.7926 51.3640 -645237.7991 43076.6832 1171.6709 0.0000 0.0000 -541418.3956 0.0000 -541418.3956 -541418.3956 0.0000 -2619.2056 -2620.8830 2381639.4711 -2619.2056 -2620.8830
ENERGY: 3220 17643.5822 19520.3415 22333.6223 51.2602 -645282.9596 43121.3947 1171.6202 0.0000 0.0000 -541441.1386 0.0000 -541441.1386 -541441.1386 0.0000 -2525.8655 -2520.6308 2381639.4711 -2525.8655 -2520.6308
ENERGY: 3240 17627.7318 19544.1344 22333.3038 51.2593 -645341.3526 43146.9146 1171.5431 0.0000 0.0000 -541466.4656 0.0000 -541466.4656 -541466.4656 0.0000 -2517.1161 -2517.1832 2381639.4711 -2517.1161 -2517.1832
ENERGY: 3259 17608.6325 19595.3606 22332.4450 51.4241 -645427.6110 43182.5409 1171.5215 0.0000 0.0000 -541485.6863 0.0000 -541485.6863 -541485.6863 0.0000 -2510.3543 -2512.1252 2381639.4711 -2510.3543 -2512.1252
ENERGY: 3279 17628.5154 19563.7754 22331.8880 51.3645 -645480.5271 43224.1477 1171.6883 0.0000 0.0000 -541509.1478 0.0000 -541509.1478 -541509.1478 0.0000 -2504.5229 -2504.9905 2381639.4711 -2504.5229 -2504.9905
ENERGY: 3299 17649.2856 19540.2560 22330.8524 51.4931 -645541.8211 43264.6407 1171.9591 0.0000 0.0000 -541533.3342 0.0000 -541533.3342 -541533.3342 0.0000 -2593.8077 -2586.7850 2381639.4711 -2593.8077 -2586.7850
TCL: membrane dimensions at step 3300: {17.1393604714 -17.1153869422}
TCL: Waters to push Up:   69958 71338 72484 76327 77404 78400 80080 81964 83890 87037 88789 92713 103048 104035 110470 111970 116467 120886 126409 126589 127981 128704 129259 130000 130957 133786 138649 140095 140233 141940 145066 150289 156427 158659 163807 167653 169741 170134 171220 172429
TCL: Waters to push Down: 71503 74431 74722 75793 78079 79207 79657 80590 81676 85636 92236 93001 93535 93760 94138 95836 97315 99142 100492 106225 108022 108154 109315 111889 114961 116536 119521 120943 121048 121246 122527 124102 124564 125536 125824 126442 126697 129580 129601 130081 130657 131926 132988 133939 134557 136036 138472 138541 139366 142294 151276 151456 151495 152200 152896 159430 160336 162829 164701 165844 167848
TCL: Reassign waters to push at step: 3300
ETITLE: TS BOND ANGLE DIHED IMPRP ELECT VDW BOUNDARY MISC KINETIC TOTAL TEMP POTENTIAL TOTAL3 TEMPAVG PRESSURE GPRESSURE VOLUME PRESSAVG GPRESSAVG
ENERGY: 3300 17648.9617 19540.0493 22330.8652 51.4907 -645540.8295 43264.1331 1171.9553 0.0000 0.0000 -541533.3741 0.0000 -541533.3741 -541533.3741 0.0000 -2593.4958 -2586.6824 2381639.4711 -2593.4958 -2586.6824
ENERGY: 3320 17625.6216 19584.2767 22329.5774 51.2489 -645622.0033 43303.0990 1172.3475 0.0000 0.0000 -541555.8322 0.0000 -541555.8322 -541555.8322 0.0000 -2508.9403 -2507.1218 2381639.4711 -2508.9403 -2507.1218
ENERGY: 3340 17647.9184 19594.4085 22328.3630 51.2589 -645737.9308 43385.3782 1173.0257 0.0000 0.0000 -541557.5781 0.0000 -541557.5781 -541557.5781 0.0000 -2477.1374 -2485.5518 2381639.4711 -2477.1374 -2485.5518
ENERGY: 3359 17654.5934 19553.3375 22328.2563 51.2521 -645763.5598 43402.8856 1173.1742 0.0000 0.0000 -541600.0607 0.0000 -541600.0607 -541600.0607 0.0000 -2488.0650 -2482.9726 2381639.4711 -2488.0650 -2482.9726
ENERGY: 3379 17648.1710 19570.2273 22327.8471 51.3078 -645839.0834 43446.6779 1173.6302 0.0000 0.0000 -541621.2220 0.0000 -541621.2220 -541621.2220 0.0000 -2491.2219 -2483.2373 2381639.4711 -2491.2219 -2483.2373
ENERGY: 3399 17630.7994 19607.9957 22327.2518 51.4792 -645945.7570 43506.4699 1174.1541 0.0000 0.0000 -541647.6068 0.0000 -541647.6068 -541647.6068 0.0000 -2542.5016 -2554.8241 2381639.4711 -2542.5016 -2554.8241
TCL: membrane dimensions at step 3400: {17.139138201 -17.1157545937}
TCL: Waters to push Up:   69514 69958 72484 76327 78400 80080 85087 85264 87037 91774 92713 93454 96028 98509 99928 103048 107326 116467 119221 120886 126409 126508 126589 127981 128704 130000 130957 134797 138649 140095 141940 144286 144553 145993 150289 156427 158659 163807 166459 167335 169741 170095 170134 171220 171415 172429
TCL: Waters to push Down: 68053 74722 76810 78079 79207 79657 80590 81073 81676 85636 91828 92566 93001 93535 93760 94138 95836 97315 100492 101785 106225 108022 108154 109315 111889 114961 116536 118807 120943 121246 122527 123049 124102 124564 125536 125824 126442 126697 129580 130657 131926 132841 132988 133939 138472 139366 142294 151276 151297 151495 152200 152896 159430 160336 163459 165844 167806 167848
TCL: Reassign waters to push at step: 3400
ETITLE: TS BOND ANGLE DIHED IMPRP ELECT VDW BOUNDARY MISC KINETIC TOTAL TEMP POTENTIAL TOTAL3 TEMPAVG PRESSURE GPRESSURE VOLUME PRESSAVG GPRESSAVG
ENERGY: 3400 17642.2993 19606.0842 22327.2099 51.7554 -645958.1869 43522.2578 1174.3004 0.0000 0.0000 -541634.2798 0.0000 -541634.2798 -541634.2798 0.0000 -2536.8891 -2552.2076 2381639.4711 -2536.8891 -2552.2076
ENERGY: 3420 17705.5405 19559.4363 22326.7708 51.5672 -646052.3081 43580.3645 1174.8166 0.0000 0.0000 -541653.8122 0.0000 -541653.8122 -541653.8122 0.0000 -2488.8361 -2462.8800 2381639.4711 -2488.8361 -2462.8800
ENERGY: 3440 17658.8328 19570.3583 22326.7419 51.7414 -646068.6954 43596.9993 1174.9482 0.0000 0.0000 -541689.0734 0.0000 -541689.0734 -541689.0734 0.0000 -2469.3523 -2463.8153 2381639.4711 -2469.3523 -2463.8153
ENERGY: 3459 17651.6974 19616.8699 22326.9975 51.7228 -646169.1353 43639.4612 1175.3323 0.0000 0.0000 -541707.0540 0.0000 -541707.0540 -541707.0540 0.0000 -2446.3329 -2450.7799 2381639.4711 -2446.3329 -2450.7799
ENERGY: 3479 17659.6709 19607.3295 22326.5202 51.6279 -646246.8473 43695.2941 1175.9908 0.0000 0.0000 -541730.4139 0.0000 -541730.4139 -541730.4139 0.0000 -2440.4854 -2439.3902 2381639.4711 -2440.4854 -2439.3902
ENERGY: 3499 17678.7772 19568.3157 22325.7969 51.7987 -646289.1003 43750.9534 1176.4565 0.0000 0.0000 -541737.0020 0.0000 -541737.0020 -541737.0020 0.0000 -2518.1102 -2514.3160 2381639.4711 -2518.1102 -2514.3160
TCL: membrane dimensions at step 3500: {17.1386927397 -17.1161611291}
TCL: Waters to push Up:   69514 69958 72484 76327 77404 78400 80080 87037 91774 92713 93454 96805 98509 99928 107326 111970 116467 118486 120886 126589 127981 128041 128704 129517 130000 130957 138649 140095 140233 141940 142423 144286 144553 145993 150289 156427 158659 166459 167335 169741 170095 170134 171220 171415 171877
TCL: Waters to push Down: 68053 68335 68584 78079 79207 79657 80590 81073 81493 81676 93001 93535 93760 95836 97315 100492 106225 108022 108154 109315 111889 113326 114799 116536 120172 120943 121246 122527 124102 124564 125536 125824 126442 126697 129580 130081 130657 132841 132988 133939 138472 139366 142294 151297 151456 151495 152200 152896 159430 160336 167806 167848
TCL: Reassign waters to push at step: 3500
ETITLE: TS BOND ANGLE DIHED IMPRP ELECT VDW BOUNDARY MISC KINETIC TOTAL TEMP POTENTIAL TOTAL3 TEMPAVG PRESSURE GPRESSURE VOLUME PRESSAVG GPRESSAVG
ENERGY: 3500 17669.0471 19572.2523 22325.8976 51.7307 -646279.3464 43734.9119 1176.3503 0.0000 0.0000 -541749.1566 0.0000 -541749.1566 -541749.1566 0.0000 -2521.4107 -2515.9745 2381639.4711 -2521.4107 -2515.9745
ENERGY: 3520 17678.3657 19589.8773 22325.6704 51.6709 -646353.5418 43763.1163 1176.5158 0.0000 0.0000 -541768.3254 0.0000 -541768.3254 -541768.3254 0.0000 -2434.7703 -2432.0873 2381639.4711 -2434.7703 -2432.0873
ENERGY: 3540 17655.1508 19617.1851 22325.7876 51.5937 -646399.5443 43791.4158 1176.7394 0.0000 0.0000 -541781.6718 0.0000 -541781.6718 -541781.6718 0.0000 -2419.1758 -2423.9737 2381639.4711 -2419.1758 -2423.9737
ENERGY: 3559 17677.1058 19629.8568 22325.7607 51.6969 -646495.6235 43832.8919 1177.0272 0.0000 0.0000 -541801.2842 0.0000 -541801.2842 -541801.2842 0.0000 -2429.1988 -2425.4493 2381639.4711 -2429.1988 -2425.4493
ENERGY: 3579 17679.9978 19592.7675 22324.9885 51.7414 -646497.4893 43832.3761 1176.7522 0.0000 0.0000 -541838.8657 0.0000 -541838.8657 -541838.8657 0.0000 -2417.3665 -2417.7021 2381639.4711 -2417.3665 -2417.7021
ENERGY: 3599 17669.4560 19587.0247 22324.5704 51.6575 -646533.6933 43841.6054 1176.5201 0.0000 0.0000 -541882.8591 0.0000 -541882.8591 -541882.8591 0.0000 -2498.5870 -2498.9656 2381639.4711 -2498.5870 -2498.9656
TCL: membrane dimensions at step 3600: {17.1383904789 -17.1163323474}
TCL: Waters to push Up:   69514 69958 72484 76327 76450 78400 80080 81181 85750 87037 91774 92713 93454 98509 99928 104035 107326 110470 116467 118486 120886 126589 127981 128041 128704 130000 130957 134797 138649 140095 140233 141940 144286 145360 145993 150289 156427 158659 162958 163807 166459 167653 169741 170095 170134 171220 171415 171877
TCL: Waters to push Down: 68053 68335 68584 76810 78079 79207 79657 80590 81073 81676 85636 86569 92947 93001 93535 93760 94138 95836 97315 100492 106225 108022 108154 109315 111889 113326 114799 116536 118807 120172 120943 121246 122527 124102 124564 125536 125824 126442 126697 129580 129601 130081 130657 132841 132988 133939 135448 138472 139366 142294 151297 151456 151495 152200 152896 159430 160336 167806 167848
TCL: Reassign waters to push at step: 3600
ETITLE: TS BOND ANGLE DIHED IMPRP ELECT VDW BOUNDARY MISC KINETIC TOTAL TEMP POTENTIAL TOTAL3 TEMPAVG PRESSURE GPRESSURE VOLUME PRESSAVG GPRESSAVG
ENERGY: 3600 17671.9097 19595.4581 22324.4600 51.6867 -646556.3385 43841.7779 1176.4590 0.0000 0.0000 -541894.5871 0.0000 -541894.5871 -541894.5871 0.0000 -2501.3786 -2498.7641 2381639.4711 -2501.3786 -2498.7641
ENERGY: 3620 17658.6720 19615.9672 22324.0835 51.9039 -646578.4230 43834.6436 1175.4729 0.0000 0.0000 -541917.6799 0.0000 -541917.6799 -541917.6799 0.0000 -2402.4025 -2423.5102 2381639.4711 -2402.4025 -2423.5102
ENERGY: 3640 17700.6435 19587.7770 22322.3617 51.6746 -646628.2936 43844.5280 1174.9017 0.0000 0.0000 -541946.4070 0.0000 -541946.4070 -541946.4070 0.0000 -2430.5382 -2423.8819 2381639.4711 -2430.5382 -2423.8819
ENERGY: 3659 17691.7436 19590.1127 22322.0989 51.5010 -646656.3134 43846.5560 1174.5209 0.0000 0.0000 -541979.7803 0.0000 -541979.7803 -541979.7803 0.0000 -2431.1573 -2421.7484 2381639.4711 -2431.1573 -2421.7484
ENERGY: 3679 17673.3401 19618.7521 22322.1405 51.4722 -646707.5425 43860.2298 1173.5966 0.0000 0.0000 -542008.0112 0.0000 -542008.0112 -542008.0112 0.0000 -2410.3919 -2416.1615 2381639.4711 -2410.3919 -2416.1615
ENERGY: 3699 17683.5092 19581.2353 22321.9825 51.4700 -646707.0294 43868.8596 1172.8380 0.0000 0.0000 -542027.1349 0.0000 -542027.1349 -542027.1349 0.0000 -2515.6412 -2509.5104 2381639.4711 -2515.6412 -2509.5104
TCL: membrane dimensions at step 3700: {17.137862427 -17.1159557704}
TCL: Waters to push Up:   69958 71338 72484 76327 77404 78400 80080 83890 85264 87037 88789 92713 93454 96028 103048 115900 116467 119221 120886 126508 126589 127981 128704 130000 130957 133786 140095 141940 144286 144553 145066 145993 150289 156427 158659 163807 167335 169741 170134 171220 172429
TCL: Waters to push Down: 68053 74431 78079 79207 79657 80590 81073 81676 85636 91828 92566 93001 93535 93760 94138 95836 97315 99142 100492 106225 108022 108154 109315 111889 116536 120943 122527 123049 124102 124564 125536 125824 126442 126697 129580 130657 131926 132841 132988 133939 136036 138472 138541 139366 142294 151495 152200 152896 159430 160336 162829 163459 165844 167848
TCL: Reassign waters to push at step: 3700
ETITLE: TS BOND ANGLE DIHED IMPRP ELECT VDW BOUNDARY MISC KINETIC TOTAL TEMP POTENTIAL TOTAL3 TEMPAVG PRESSURE GPRESSURE VOLUME PRESSAVG GPRESSAVG
ENERGY: 3700 17683.1429 19581.9266 22321.9858 51.4676 -646707.2816 43868.6946 1172.8524 0.0000 0.0000 -542027.2117 0.0000 -542027.2117 -542027.2117 0.0000 -2515.3934 -2509.4034 2381639.4711 -2515.3934 -2509.4034
ENERGY: 3720 17701.4987 19580.5129 22321.8346 51.4088 -646741.2481 43873.8714 1172.3136 0.0000 0.0000 -542039.8082 0.0000 -542039.8082 -542039.8082 0.0000 -2435.2557 -2425.9720 2381639.4711 -2435.2557 -2425.9720
ENERGY: 3740 17672.3233 19597.2740 22321.7118 51.4976 -646739.6556 43873.5448 1171.8864 0.0000 0.0000 -542051.4177 0.0000 -542051.4177 -542051.4177 0.0000 -2412.7959 -2420.8230 2381639.4711 -2412.7959 -2420.8230
ENERGY: 3759 17685.8631 19627.5648 22321.9680 51.4767 -646805.7165 43878.3170 1171.4035 0.0000 0.0000 -542069.1235 0.0000 -542069.1235 -542069.1235 0.0000 -2427.6183 -2426.6704 2381639.4711 -2427.6183 -2426.6704
ENERGY: 3779 17690.4841 19586.4016 22322.2993 51.5871 -646794.5958 43884.8437 1170.9378 0.0000 0.0000 -542088.0421 0.0000 -542088.0421 -542088.0421 0.0000 -2431.2377 -2424.1175 2381639.4711 -2431.2377 -2424.1175
ENERGY: 3799 17686.1863 19577.3959 22323.1209 51.6519 -646804.3709 43886.7924 1170.5177 0.0000 0.0000 -542108.7059 0.0000 -542108.7059 -542108.7059 0.0000 -2482.9885 -2488.4311 2381639.4711 -2482.9885 -2488.4311
TCL: membrane dimensions at step 3800: {17.1371962583 -17.1155912753}
TCL: Waters to push Up:   69958 71338 72484 76327 78400 80080 85087 87037 88789 91774 92713 99928 103012 103048 107326 111970 115900 116467 119221 120886 126409 126589 126718 127981 128704 129259 129517 130000 130957 134797 138649 140095 140233 141940 145066 150289 156427 158536 158659 163807 167653 169741 170134 171220 172429
TCL: Waters to push Down: 71503 74722 78079 79207 79657 80590 81676 85636 93001 93535 93760 94138 97315 99142 100492 106225 108022 108154 109315 111889 114961 116536 119521 120943 121048 121246 122527 124102 124564 125536 125824 126442 126697 129580 129601 130081 130657 131926 132988 133939 134557 136036 138472 138541 139366 142294 147463 151276 151456 151495 152200 152896 159430 160336 162829 164701 165844 167848
TCL: Reassign waters to push at step: 3800
ETITLE: TS BOND ANGLE DIHED IMPRP ELECT VDW BOUNDARY MISC KINETIC TOTAL TEMP POTENTIAL TOTAL3 TEMPAVG PRESSURE GPRESSURE VOLUME PRESSAVG GPRESSAVG
ENERGY: 3800 17683.3749 19582.3306 22323.1419 51.6013 -646809.8475 43886.0247 1170.4889 0.0000 0.0000 -542112.8852 0.0000 -542112.8852 -542112.8852 0.0000 -2482.7589 -2488.9437 2381639.4711 -2482.7589 -2488.9437
ENERGY: 3820 17686.9937 19624.6242 22323.3964 51.5442 -646876.2352 43887.6077 1170.2521 0.0000 0.0000 -542131.8170 0.0000 -542131.8170 -542131.8170 0.0000 -2414.2043 -2412.2903 2381639.4711 -2414.2043 -2412.2903
ENERGY: 3840 17704.2910 19602.5888 22324.0005 51.6445 -646885.7986 43883.4019 1169.8686 0.0000 0.0000 -542150.0034 0.0000 -542150.0034 -542150.0034 0.0000 -2409.8256 -2403.1633 2381639.4711 -2409.8256 -2403.1633
ENERGY: 3859 17693.5595 19575.5072 22324.2937 51.5047 -646871.4647 43886.9886 1169.7478 0.0000 0.0000 -542169.8631 0.0000 -542169.8631 -542169.8631 0.0000 -2406.8293 -2409.0357 2381639.4711 -2406.8293 -2409.0357
ENERGY: 3879 17699.3772 19600.9830 22323.7355 51.6183 -646924.4561 43893.4101 1169.6030 0.0000 0.0000 -542185.7289 0.0000 -542185.7289 -542185.7289 0.0000 -2408.3333 -2402.0657 2381639.4711 -2408.3333 -2402.0657
ENERGY: 3899 17682.4158 19624.1860 22323.5235 51.7462 -646960.8189 43901.0858 1169.4910 0.0000 0.0000 -542208.3707 0.0000 -542208.3707 -542208.3707 0.0000 -2486.0470 -2486.7489 2381639.4711 -2486.0470 -2486.7489
TCL: membrane dimensions at step 3900: {17.1359952347 -17.1150633782}
TCL: Waters to push Up:   69514 69958 72484 76327 77404 78400 80080 81181 81949 87037 88789 91774 92713 93454 96805 99928 104035 107326 110470 115900 116467 118486 120886 126409 126589 127981 128041 128704 130000 130957 134797 140095 140233 141940 144286 145993 150289 156427 158659 162958 163807 166459 166585 167653 169741 170095 170134 171220 171415 172429
TCL: Waters to push Down: 68020 68053 68335 74722 75793 76810 78079 79207 79657 80590 81073 81676 86569 92236 92947 93535 93760 94138 95836 97315 100492 101785 106225 108022 108154 109315 111889 113326 114961 116536 119521 120943 122527 124102 124564 125536 125824 126442 126697 129580 129601 130081 130657 131926 132988 133939 134557 136036 138472 139366 142294 147463 151276 151297 151495 152200 152896 159430 160336 163459 167806 167848
TCL: Reassign waters to push at step: 3900
ETITLE: TS BOND ANGLE DIHED IMPRP ELECT VDW BOUNDARY MISC KINETIC TOTAL TEMP POTENTIAL TOTAL3 TEMPAVG PRESSURE GPRESSURE VOLUME PRESSAVG GPRESSAVG
ENERGY: 3900 17690.9286 19626.7097 22323.5743 51.6969 -646974.2285 43904.1358 1169.4884 0.0000 0.0000 -542207.6948 0.0000 -542207.6948 -542207.6948 0.0000 -2485.8001 -2484.2296 2381639.4711 -2485.8001 -2484.2296
ENERGY: 3920 17692.1725 19588.9920 22323.7324 51.6028 -646960.8002 43910.0837 1169.5528 0.0000 0.0000 -542224.6641 0.0000 -542224.6641 -542224.6641 0.0000 -2382.0981 -2386.3282 2381639.4711 -2382.0981 -2386.3282
ENERGY: 3940 17715.7281 19577.3939 22322.9415 51.7548 -647005.6315 43926.8431 1169.5619 0.0000 0.0000 -542241.4083 0.0000 -542241.4083 -542241.4083 0.0000 -2399.3219 -2388.1709 2381639.4711 -2399.3219 -2388.1709
ENERGY: 3959 17683.8709 19612.0984 22322.6399 51.8884 -647041.0271 43942.1472 1169.5416 0.0000 0.0000 -542258.8408 0.0000 -542258.8408 -542258.8408 0.0000 -2377.3648 -2379.0337 2381639.4711 -2377.3648 -2379.0337
ENERGY: 3979 17684.9233 19624.8505 22323.1811 51.7997 -647096.8668 43967.9666 1169.5774 0.0000 0.0000 -542274.5682 0.0000 -542274.5682 -542274.5682 0.0000 -2365.1176 -2371.6856 2381639.4711 -2365.1176 -2371.6856
ENERGY: 3999 17713.5873 19587.0216 22323.5738 51.8434 -647124.9539 43989.3765 1169.5463 0.0000 0.0000 -542290.0050 0.0000 -542290.0050 -542290.0050 0.0000 -2472.3030 -2466.0960 2381639.4711 -2472.3030 -2466.0960
TCL: membrane dimensions at step 4000: {17.1351208523 -17.1147043289}
TCL: Waters to push Up:   69514 69958 72484 76327 77404 78400 80080 81181 81949 81964 83890 85264 85750 87037 91774 92713 93454 96028 98509 99928 104035 116467 118486 119221 120886 126589 127981 128041 128704 130000 130957 133786 140095 140233 141940 144286 144553 145993 150289 156427 158659 162958 163807 166459 167335 169741 170095 170134 171220 171415 172429
TCL: Waters to push Down: 68053 68584 74431 74722 78079 79207 79657 80590 81073 81493 81676 85636 86569 91828 92566 93001 93535 93760 94138 95836 97315 100492 106225 108022 108154 109315 111889 113326 114799 116536 118807 120943 121246 122527 124102 124564 125536 125824 126442 126697 129580 130081 130657 132841 132988 133939 134557 138472 139366 142294 151297 151456 151495 152200 152896 159430 160336 163165 167797 167848 172663
TCL: Reassign waters to push at step: 4000
