Info: SIMULATION PARAMETERS:
Info: TIMESTEP               1
Info: NUMBER OF STEPS        0
Info: STEPS PER CYCLE        20
Info: PERIODIC CELL BASIS 1  179.672 0 0
Info: PERIODIC CELL BASIS 2  0 181.877 0
Info: PERIODIC CELL BASIS 3  0 0 87.315
Info: PERIODIC CELL CENTER   39.761 40.384 -1.088
Info: WRAPPING ALL CLUSTERS AROUND PERIODIC BOUNDARIES ON OUTPUT.
Info: FIRST LDB TIMESTEP     100
Info: LAST LDB TIMESTEP     -1
Info: HOM BACKGROUND SCALING 1
Info: PME BACKGROUND SCALING 1
Info: REMOVING PATCHES FROM PROCESSOR 0
Info: MIN ATOMS PER PATCH    40
Info: INITIAL TEMPERATURE    310
Info: CENTER OF MASS MOVING INITIALLY? NO
Info: DIELECTRIC             1
Info: EXCLUDE                SCALED ONE-FOUR
Info: 1-4 ELECTROSTATICS SCALED BY 1
Info: MODIFIED 1-4 VDW PARAMETERS WILL BE USED
Info: DCD FILENAME           ./dat_phase1.dcd
Info: DCD FREQUENCY          5000
Info: DCD FIRST STEP         5000
Info: DCD FILE WILL CONTAIN UNIT CELL DATA
Info: XST FILENAME           ./dat_phase1.xst
Info: XST FREQUENCY          5000
Info: NO VELOCITY DCD OUTPUT
Info: NO FORCE DCD OUTPUT
Info: OUTPUT FILENAME        ./dat_phase1
Info: RESTART FILENAME       ./dat_phase1.restart
Info: RESTART FREQUENCY      5000
Info: BINARY RESTART FILES WILL BE USED
Info: SWITCHING ACTIVE
Info: SWITCHING ON           10
Info: SWITCHING OFF          12
Info: PAIRLIST DISTANCE      13.5
Info: PAIRLIST SHRINK RATE   0.01
Info: PAIRLIST GROW RATE     0.01
Info: PAIRLIST TRIGGER       0.3
Info: PAIRLISTS PER CYCLE    2
Info: PAIRLISTS ENABLED
Info: MARGIN                 1.5
Info: HYDROGEN GROUP CUTOFF  2.5
Info: PATCH DIMENSION        17.5
Info: ENERGY OUTPUT STEPS    5000
Info: CROSSTERM ENERGY INCLUDED IN DIHEDRAL
Info: TIMING OUTPUT STEPS    5000
Info: PRESSURE OUTPUT STEPS  5000
Info: FIXED ATOMS ACTIVE
Info: LANGEVIN DYNAMICS ACTIVE
Info: LANGEVIN TEMPERATURE   310
Info: LANGEVIN DAMPING COEFFICIENT IS 5 INVERSE PS
Info: LANGEVIN DYNAMICS NOT APPLIED TO HYDROGENS
Info: PARTICLE MESH EWALD (PME) ACTIVE
Info: PME TOLERANCE               1e-06
Info: PME EWALD COEFFICIENT       0.257952
Info: PME INTERPOLATION ORDER     4
Info: PME GRID DIMENSIONS         180 192 88
Info: PME MAXIMUM GRID SPACING    1
Info: FULL ELECTROSTATIC EVALUATION FREQUENCY      4
Info: USING VERLET I (r-RESPA) MTS SCHEME.
Info: C1 SPLITTING OF LONG RANGE ELECTROSTATICS
Info: PLACING ATOMS IN PATCHES BY HYDROGEN GROUPS
Info: RIGID BONDS TO HYDROGEN : ALL
Info:         ERROR TOLERANCE : 1e-08
Info:          MAX ITERATIONS : 100
Info: RIGID WATER USING SETTLE ALGORITHM
Info: NONBONDED FORCES EVALUATED EVERY 2 STEPS
Info: RANDOM NUMBER SEED     1405126181
Info: USE HYDROGEN BONDS?    NO
Info: COORDINATE PDB         ../common/ionized.pdb
Info: STRUCTURE FILE         ../common/ionized.psf
Info: PARAMETER file: CHARMM format!
Info: PARAMETERS             ../common/parameters_all.prm
Info: USING ARITHMETIC MEAN TO COMBINE L-J SIGMA PARAMETERS
Info: SUMMARY OF PARAMETERS:
Info: 231 BONDS
Info: 615 ANGLES
Info: 936 DIHEDRAL
Info: 55 IMPROPER
Info: 6 CROSSTERM
Info: 152 VDW
Info: 0 VDW_PAIRS
Info: 0 NBTHOLE_PAIRS
Info: STRUCTURE SUMMARY:
Info: 231985 ATOMS
Info: 185243 BONDS
Info: 223663 ANGLES
Info: 247349 DIHEDRALS
Info: 2563 IMPROPERS
Info: 0 CROSSTERMS
Info: 0 EXCLUSIONS
Info: 160480 FIXED ATOMS
Info: 194058 RIGID BONDS
Info: 149112 RIGID BONDS BETWEEN FIXED ATOMS
Info: 169569 DEGREES OF FREEDOM
Info: 83965 HYDROGEN GROUPS
Info: 4 ATOMS IN LARGEST HYDROGEN GROUP
Info: 83965 MIGRATION GROUPS
Info: 4 ATOMS IN LARGEST MIGRATION GROUP
Info: 57406 HYDROGEN GROUPS WITH ALL ATOMS FIXED
Info: TOTAL MASS = 1.38414e+06 amu
Info: TOTAL CHARGE = -0.999934 e
Info: MASS DENSITY = 0.805552 g/cm^3
Info: ATOM DENSITY = 0.0813042 atoms/A^3
Info: REMOVING COM VELOCITY -0.0113617 0.00589117 -0.00107662
Info: NONBONDED TABLE R-SQUARED SPACING: 0.0625
Info: NONBONDED TABLE SIZE: 769 POINTS
TCL: Minimizing for 5000 steps
ETITLE: TS BOND ANGLE DIHED IMPRP ELECT VDW BOUNDARY MISC KINETIC TOTAL TEMP POTENTIAL TOTAL3 TEMPAVG PRESSURE GPRESSURE VOLUME PRESSAVG GPRESSAVG
ENERGY: 0 6986.2925 38932.8485 31160.0638 380.2610 -2481891.8461 9999999999.9999 0.0000 0.0000 0.0000 9999999999.9999 0.0000 9999999999.9999 9999999999.9999 0.0000 9999999999.9999 9999999999.9999 2853297.2480 9999999999.9999 9999999999.9999
ENERGY: 1000 5838.7968 36837.8626 36814.7673 303.7456 -2480823.2220 7972.9832 0.0000 0.0000 0.0000 -2393055.0664 0.0000 -2393055.0664 -2393055.0664 0.0000 3828.1739 3999.5347 2853297.2480 3828.1739 3999.5347
ENERGY: 2000 1230.3887 11486.4849 33620.1404 195.2020 -2482201.5401 -19131.1652 0.0000 0.0000 0.0000 -2454800.4892 0.0000 -2454800.4892 -2454800.4892 0.0000 642.7394 667.4331 2853297.2480 642.7394 667.4331
ENERGY: 3000 724.0760 7990.0222 29945.7455 148.4114 -2483048.1666 -24604.5772 0.0000 0.0000 0.0000 -2468844.4887 0.0000 -2468844.4887 -2468844.4887 0.0000 89.3571 91.3991 2853297.2480 89.3571 91.3991
ENERGY: 4000 704.7878 7558.7398 28973.3605 132.6807 -2483350.6309 -25655.2881 0.0000 0.0000 0.0000 -2471636.3502 0.0000 -2471636.3502 -2471636.3502 0.0000 -5.2547 -2.6475 2853297.2480 -5.2547 -2.6475
ENERGY: 5000 691.7087 7413.8987 28640.9614 129.5003 -2483457.2422 -26073.5972 0.0000 0.0000 0.0000 -2472654.7704 0.0000 -2472654.7704 -2472654.7704 0.0000 -23.3067 -22.3210 2853297.2480 -23.3067 -22.3210
TCL: Running for 500000 steps
ETITLE: TS BOND ANGLE DIHED IMPRP ELECT VDW BOUNDARY MISC KINETIC TOTAL TEMP POTENTIAL TOTAL3 TEMPAVG PRESSURE GPRESSURE VOLUME PRESSAVG GPRESSAVG
ENERGY: 5000 617.2121 7465.4460 28641.9294 129.6009 -2483394.9485 -26022.7623 0.0000 0.0000 52431.2487 -2420132.2737 311.1961 -2472563.5224 -2420154.3661 311.1961 324.0089 407.1695 2853297.2480 324.0089 407.1695
ENERGY: 105000 7169.5592 40750.5534 32364.6430 433.8097 -2484788.9948 -22887.7880 0.0000 0.0000 52091.7348 -2374866.4827 309.1810 -2426958.2175 -2374592.2117 309.9464 -105.5611 -11.0549 2853297.2480 10.9084 10.4651
ENERGY: 205000 7133.2942 40795.8692 32464.5468 415.9890 -2484909.0498 -23171.9140 0.0000 0.0000 52162.7312 -2375108.5333 309.6023 -2427271.2645 -2374845.7372 309.6399 -52.2628 37.2466 2853297.2480 16.4449 15.9888
ENERGY: 305000 7107.3884 40786.0600 32403.0691 409.9140 -2485132.2148 -23378.9229 0.0000 0.0000 52181.8218 -2375622.8844 309.7157 -2427804.7062 -2375358.7666 309.6607 115.9853 205.1794 2853297.2480 0.1697 -0.3091
ENERGY: 405000 7103.2731 40764.3235 32300.6195 414.9037 -2485243.6565 -23613.7129 0.0000 0.0000 51952.3212 -2376321.9285 308.3535 -2428274.2497 -2376053.0032 309.7824 -655.5521 -570.9346 2853297.2480 -7.1925 -7.6393
ENERGY: 505000 7377.2868 41111.3489 32420.3686 421.2644 -2485345.4328 -23625.1660 0.0000 0.0000 51937.9002 -2375702.4300 308.2679 -2427640.3302 -2375436.8800 309.8164 -274.6372 -188.9284 2853297.2480 31.8089 31.3798
