Info: SIMULATION PARAMETERS:
Info: TIMESTEP               1
Info: NUMBER OF STEPS        2000000
Info: STEPS PER CYCLE        20
Info: PERIODIC CELL BASIS 1  122.693 0 0
Info: PERIODIC CELL BASIS 2  0 123.79 0
Info: PERIODIC CELL BASIS 3  0 0 108.552
Info: PERIODIC CELL CENTER   -0.442 0.25 1.773
Info: WRAPPING ALL CLUSTERS AROUND PERIODIC BOUNDARIES ON OUTPUT.
Info: FIRST LDB TIMESTEP     100
Info: LAST LDB TIMESTEP     -1
Info: HOM BACKGROUND SCALING 1
Info: PME BACKGROUND SCALING 1
Info: MAX SELF PARTITIONS    20
Info: MAX PAIR PARTITIONS    8
Info: SELF PARTITION ATOMS   154
Info: SELF2 PARTITION ATOMS   154
Info: PAIR PARTITION ATOMS   318
Info: PAIR2 PARTITION ATOMS  637
Info: MIN ATOMS PER PATCH    100
Info: VELOCITY FILE          /home/jam2079/Pathrover/2jlo/phase2b/dat_phase2b1.restart.vel
Info: CENTER OF MASS MOVING INITIALLY? NO
Info: DIELECTRIC             1
Info: EXCLUDE                SCALED ONE-FOUR
Info: 1-4 ELECTROSTATICS SCALED BY 1
Info: MODIFIED 1-4 VDW PARAMETERS WILL BE USED
Info: DCD FILENAME           ./dat_phase2b2.dcd
Info: DCD FREQUENCY          5000
Info: DCD FIRST STEP         2005000
Info: DCD FILE WILL CONTAIN UNIT CELL DATA
Info: XST FILENAME           ./dat_phase2b2.xst
Info: XST FREQUENCY          5000
Info: NO VELOCITY DCD OUTPUT
Info: OUTPUT FILENAME        ./dat_phase2b2
Info: RESTART FILENAME       ./dat_phase2b2.restart
Info: RESTART FREQUENCY      5000
Info: BINARY RESTART FILES WILL BE USED
Info: SWITCHING ACTIVE
Info: SWITCHING ON           10
Info: SWITCHING OFF          12
Info: PAIRLIST DISTANCE      13.5
Info: PAIRLIST SHRINK RATE   0.01
Info: PAIRLIST GROW RATE     0.01
Info: PAIRLIST TRIGGER       0.3
Info: PAIRLISTS PER CYCLE    2
Info: PAIRLISTS ENABLED
Info: MARGIN                 1.5
Info: HYDROGEN GROUP CUTOFF  2.5
Info: PATCH DIMENSION        17.5
Info: ENERGY OUTPUT STEPS    5000
Info: CROSSTERM ENERGY INCLUDED IN DIHEDRAL
Info: TIMING OUTPUT STEPS    5000
Info: PRESSURE OUTPUT STEPS  5000
Info: HARMONIC CONSTRAINTS ACTIVE
Info: HARMONIC CONS EXP      2
Info: LANGEVIN DYNAMICS ACTIVE
Info: LANGEVIN TEMPERATURE   310
Info: LANGEVIN DAMPING COEFFICIENT IS 5 INVERSE PS
Info: LANGEVIN DYNAMICS NOT APPLIED TO HYDROGENS
Info: LANGEVIN PISTON PRESSURE CONTROL ACTIVE
Info:        TARGET PRESSURE IS 1.01325 BAR
Info:     OSCILLATION PERIOD IS 200 FS
Info:             DECAY TIME IS 50 FS
Info:     PISTON TEMPERATURE IS 310 K
Info:       PRESSURE CONTROL IS GROUP-BASED
Info:    INITIAL STRAIN RATE IS -2.75406e-05 -2.75406e-05 2.30376e-05
Info:       CELL FLUCTUATION IS ANISOTROPIC
Info:     SHAPE OF CELL IS CONSTRAINED IN X-Y PLANE
Info: PARTICLE MESH EWALD (PME) ACTIVE
Info: PME TOLERANCE               1e-06
Info: PME EWALD COEFFICIENT       0.257952
Info: PME INTERPOLATION ORDER     4
Info: PME GRID DIMENSIONS         128 128 112
Info: PME MAXIMUM GRID SPACING    1
Info: FULL ELECTROSTATIC EVALUATION FREQUENCY      4
Info: USING VERLET I (r-RESPA) MTS SCHEME.
Info: C1 SPLITTING OF LONG RANGE ELECTROSTATICS
Info: PLACING ATOMS IN PATCHES BY HYDROGEN GROUPS
Info: RIGID BONDS TO HYDROGEN : ALL
Info:         ERROR TOLERANCE : 1e-08
Info:          MAX ITERATIONS : 100
Info: RIGID WATER USING SETTLE ALGORITHM
Info: NONBONDED FORCES EVALUATED EVERY 2 STEPS
Info: RANDOM NUMBER SEED     1400710193
Info: USE HYDROGEN BONDS?    NO
Info: COORDINATE PDB         /home/jam2079/Pathrover/2jlo/phase2b/dat_phase2b1.coor
Info: STRUCTURE FILE         /home/jam2079/Pathrover/2jlo/common/ionized.psf
Info: PARAMETER file: CHARMM format!
Info: PARAMETERS             /home/jam2079/Pathrover/2jlo/common/parameters_all.prm
Info: PARAMETERS             /home/jam2079/Pathrover/2jlo/common/BHY_hyd_mod.prm
Info: USING ARITHMETIC MEAN TO COMBINE L-J SIGMA PARAMETERS
Info: BINARY COORDINATES     /home/jam2079/Pathrover/2jlo/phase2b/dat_phase2b1.restart.coor
Info: FIRST TIMESTEP         2000000
Info: SUMMARY OF PARAMETERS:
Info: 242 BONDS
Info: 636 ANGLES
Info: 971 DIHEDRAL
Info: 55 IMPROPER
Info: 6 CROSSTERM
Info: 162 VDW
Info: 0 VDW_PAIRS
Info: STRUCTURE SUMMARY:
Info: 169698 ATOMS
Info: 135324 BONDS
Info: 162553 ANGLES
Info: 179218 DIHEDRALS
Info: 2048 IMPROPERS
Info: 0 CROSSTERMS
Info: 0 EXCLUSIONS
Info: 1846 CONSTRAINTS
Info: 142126 RIGID BONDS
Info: 366968 DEGREES OF FREEDOM
Info: 61464 HYDROGEN GROUPS
Info: 4 ATOMS IN LARGEST HYDROGEN GROUP
Info: 61464 MIGRATION GROUPS
Info: 4 ATOMS IN LARGEST MIGRATION GROUP
Info: TOTAL MASS = 1.01377e+06 amu
Info: TOTAL CHARGE = 4.75738e-05 e
Info: MASS DENSITY = 1.02107 g/cm^3
Info: ATOM DENSITY = 0.102928 atoms/A^3
Info: REMOVING COM VELOCITY -0.00817672 -0.00801864 0.0136294
Info: NONBONDED TABLE R-SQUARED SPACING: 0.0625
Info: NONBONDED TABLE SIZE: 769 POINTS
TCL: Running for 500000 steps
ETITLE: TS BOND ANGLE DIHED IMPRP ELECT VDW BOUNDARY MISC KINETIC TOTAL TEMP POTENTIAL TOTAL3 TEMPAVG PRESSURE GPRESSURE VOLUME PRESSAVG GPRESSAVG
ENERGY: 2000000 8011.3055 39940.4806 27504.4804 526.3422 -432810.8434 11345.9592 144.0051 0.0000 112788.7392 -232549.5313 309.3342 -345338.2705 -232259.1006 309.3342 -13499.8249 -120.1459 1648705.8467 -13499.8249 -120.1459
ENERGY: 2100000 8000.5070 40113.6853 27409.1511 499.5248 -432146.4979 11084.5245 215.6080 0.0000 112532.1181 -232291.3792 308.6304 -344823.4972 -232019.0032 309.9244 -13299.0595 35.9917 1652339.8726 -4.4024 -4.4563
ENERGY: 2200000 7930.6922 39855.4416 27652.9015 520.9427 -432094.2514 11210.1553 213.7701 0.0000 112545.6361 -232164.7119 308.6675 -344710.3480 -231898.2020 309.8836 -13276.9066 60.6370 1652150.8802 0.8562 0.7689
ENERGY: 2300000 7871.2664 40260.3867 27702.9277 474.6587 -431972.1892 11327.6986 228.5285 0.0000 112815.6325 -231291.0902 309.4080 -344106.7227 -231007.4185 310.0412 -13194.7384 117.8789 1653676.9763 2.3243 2.2497
ENERGY: 2400000 7999.1124 40202.1350 27508.7060 511.4651 -431620.6850 10618.0272 210.2368 0.0000 113114.2976 -231456.7049 310.2271 -344571.0025 -231145.4483 309.8653 -13350.6948 -37.4348 1653103.9487 1.1051 1.1248
ENERGY: 2500000 7903.7039 39890.7287 27437.4704 532.6215 -432466.1357 10874.3156 211.6477 0.0000 112872.2405 -232743.4073 309.5632 -345615.6478 -232443.2838 309.1481 -13466.0534 -124.8987 1651036.7286 -0.7468 -0.6912
