Info: SIMULATION PARAMETERS:
Info: TIMESTEP               1
Info: NUMBER OF STEPS        0
Info: STEPS PER CYCLE        20
Info: PERIODIC CELL BASIS 1  120.004 0 0
Info: PERIODIC CELL BASIS 2  0 121.077 0
Info: PERIODIC CELL BASIS 3  0 0 115.376
Info: PERIODIC CELL CENTER   -0.442 0.25 1.773
Info: WRAPPING ALL CLUSTERS AROUND PERIODIC BOUNDARIES ON OUTPUT.
Info: FIRST LDB TIMESTEP     100
Info: LAST LDB TIMESTEP     -1
Info: HOM BACKGROUND SCALING 1
Info: PME BACKGROUND SCALING 1
Info: MAX SELF PARTITIONS    20
Info: MAX PAIR PARTITIONS    8
Info: SELF PARTITION ATOMS   154
Info: SELF2 PARTITION ATOMS   154
Info: PAIR PARTITION ATOMS   318
Info: PAIR2 PARTITION ATOMS  637
Info: MIN ATOMS PER PATCH    100
Info: VELOCITY FILE          /home/jam2079/Pathrover/2jlo/phase2a/dat_equil_phase2a6.restart.vel
Info: CENTER OF MASS MOVING INITIALLY? NO
Info: DIELECTRIC             1
Info: EXCLUDE                SCALED ONE-FOUR
Info: 1-4 ELECTROSTATICS SCALED BY 1
Info: MODIFIED 1-4 VDW PARAMETERS WILL BE USED
Info: DCD FILENAME           ./dat_phase2b1.dcd
Info: DCD FREQUENCY          5000
Info: DCD FIRST STEP         5000
Info: DCD FILE WILL CONTAIN UNIT CELL DATA
Info: XST FILENAME           ./dat_phase2b1.xst
Info: XST FREQUENCY          5000
Info: NO VELOCITY DCD OUTPUT
Info: OUTPUT FILENAME        ./dat_phase2b1
Info: RESTART FILENAME       ./dat_phase2b1.restart
Info: RESTART FREQUENCY      5000
Info: BINARY RESTART FILES WILL BE USED
Info: SWITCHING ACTIVE
Info: SWITCHING ON           10
Info: SWITCHING OFF          12
Info: PAIRLIST DISTANCE      13.5
Info: PAIRLIST SHRINK RATE   0.01
Info: PAIRLIST GROW RATE     0.01
Info: PAIRLIST TRIGGER       0.3
Info: PAIRLISTS PER CYCLE    2
Info: PAIRLISTS ENABLED
Info: MARGIN                 1.5
Info: HYDROGEN GROUP CUTOFF  2.5
Info: PATCH DIMENSION        17.5
Info: ENERGY OUTPUT STEPS    5000
Info: CROSSTERM ENERGY INCLUDED IN DIHEDRAL
Info: TIMING OUTPUT STEPS    5000
Info: PRESSURE OUTPUT STEPS  5000
Info: HARMONIC CONSTRAINTS ACTIVE
Info: HARMONIC CONS EXP      2
Info: LANGEVIN DYNAMICS ACTIVE
Info: LANGEVIN TEMPERATURE   310
Info: LANGEVIN DAMPING COEFFICIENT IS 5 INVERSE PS
Info: LANGEVIN DYNAMICS NOT APPLIED TO HYDROGENS
Info: LANGEVIN PISTON PRESSURE CONTROL ACTIVE
Info:        TARGET PRESSURE IS 1.01325 BAR
Info:     OSCILLATION PERIOD IS 200 FS
Info:             DECAY TIME IS 50 FS
Info:     PISTON TEMPERATURE IS 310 K
Info:       PRESSURE CONTROL IS GROUP-BASED
Info:    INITIAL STRAIN RATE IS 2.33379e-05 2.33379e-05 -3.80323e-05
Info:       CELL FLUCTUATION IS ANISOTROPIC
Info:     SHAPE OF CELL IS CONSTRAINED IN X-Y PLANE
Info: PARTICLE MESH EWALD (PME) ACTIVE
Info: PME TOLERANCE               1e-06
Info: PME EWALD COEFFICIENT       0.257952
Info: PME INTERPOLATION ORDER     4
Info: PME GRID DIMENSIONS         128 128 120
Info: PME MAXIMUM GRID SPACING    1
Info: FULL ELECTROSTATIC EVALUATION FREQUENCY      4
Info: USING VERLET I (r-RESPA) MTS SCHEME.
Info: C1 SPLITTING OF LONG RANGE ELECTROSTATICS
Info: PLACING ATOMS IN PATCHES BY HYDROGEN GROUPS
Info: RIGID BONDS TO HYDROGEN : ALL
Info:         ERROR TOLERANCE : 1e-08
Info:          MAX ITERATIONS : 100
Info: RIGID WATER USING SETTLE ALGORITHM
Info: NONBONDED FORCES EVALUATED EVERY 2 STEPS
Info: RANDOM NUMBER SEED     1400559067
Info: USE HYDROGEN BONDS?    NO
Info: COORDINATE PDB         /home/jam2079/Pathrover/2jlo/phase2a/dat_equil_phase2a6.coor
Info: STRUCTURE FILE         /home/jam2079/Pathrover/2jlo/common/ionized.psf
Info: PARAMETER file: CHARMM format!
Info: PARAMETERS             /home/jam2079/Pathrover/2jlo/common/parameters_all.prm
Info: PARAMETERS             /home/jam2079/Pathrover/2jlo/common/BHY_hyd_mod.prm
Info: USING ARITHMETIC MEAN TO COMBINE L-J SIGMA PARAMETERS
Info: BINARY COORDINATES     /home/jam2079/Pathrover/2jlo/phase2a/dat_equil_phase2a6.restart.coor
Info: SUMMARY OF PARAMETERS:
Info: 242 BONDS
Info: 636 ANGLES
Info: 971 DIHEDRAL
Info: 55 IMPROPER
Info: 6 CROSSTERM
Info: 162 VDW
Info: 0 VDW_PAIRS
Info: STRUCTURE SUMMARY:
Info: 169698 ATOMS
Info: 135324 BONDS
Info: 162553 ANGLES
Info: 179218 DIHEDRALS
Info: 2048 IMPROPERS
Info: 0 CROSSTERMS
Info: 0 EXCLUSIONS
Info: 1846 CONSTRAINTS
Info: 142126 RIGID BONDS
Info: 366968 DEGREES OF FREEDOM
Info: 61464 HYDROGEN GROUPS
Info: 4 ATOMS IN LARGEST HYDROGEN GROUP
Info: 61464 MIGRATION GROUPS
Info: 4 ATOMS IN LARGEST MIGRATION GROUP
Info: TOTAL MASS = 1.01377e+06 amu
Info: TOTAL CHARGE = 4.75738e-05 e
Info: MASS DENSITY = 1.00422 g/cm^3
Info: ATOM DENSITY = 0.101229 atoms/A^3
Info: REMOVING COM VELOCITY -0.00460567 0.00661213 -0.0305312
Info: NONBONDED TABLE R-SQUARED SPACING: 0.0625
Info: NONBONDED TABLE SIZE: 769 POINTS
TCL: Minimizing for 2500 steps
ETITLE: TS BOND ANGLE DIHED IMPRP ELECT VDW BOUNDARY MISC KINETIC TOTAL TEMP POTENTIAL TOTAL3 TEMPAVG PRESSURE GPRESSURE VOLUME PRESSAVG GPRESSAVG
ENERGY: 0 8057.2828 40159.5761 27666.2766 533.5902 -431628.0705 11631.2236 319.7829 0.0000 0.0000 -343260.3384 0.0000 -343260.3384 -343260.3384 0.0000 11592.5083 -1739.3285 1676381.4718 11592.5083 -1739.3285
ENERGY: 500 16533.4319 19204.2582 22923.5901 69.6964 -578304.9777 28310.1987 216.4726 0.0000 0.0000 -491047.3298 0.0000 -491047.3298 -491047.3298 0.0000 -5017.7565 -4927.5082 1676381.4718 -5017.7565 -4927.5082
ENERGY: 1000 17253.8942 19356.4945 22631.7602 66.0623 -590378.4520 32194.6029 212.3273 0.0000 0.0000 -498663.3104 0.0000 -498663.3104 -498663.3104 0.0000 -4833.8645 -4676.1694 1676381.4718 -4833.8645 -4676.1694
ENERGY: 1500 17160.1334 19260.5484 22511.2710 62.7830 -595494.7329 34642.9498 212.9846 0.0000 0.0000 -501644.0629 0.0000 -501644.0629 -501644.0629 0.0000 -4338.1197 -4335.0036 1676381.4718 -4338.1197 -4335.0036
ENERGY: 2000 17274.5118 19293.3753 22472.1248 62.7004 -598074.1709 35691.4571 213.2063 0.0000 0.0000 -503066.7952 0.0000 -503066.7952 -503066.7952 0.0000 -4193.7382 -4188.2053 1676381.4718 -4193.7382 -4188.2053
ENERGY: 2500 17360.3715 19294.8508 22454.9142 62.6584 -599523.8832 36336.0907 213.2767 0.0000 0.0000 -503801.7208 0.0000 -503801.7208 -503801.7208 0.0000 -4108.7306 -4087.6410 1676381.4718 -4108.7306 -4087.6410
TCL: Running for 500000 steps
ETITLE: TS BOND ANGLE DIHED IMPRP ELECT VDW BOUNDARY MISC KINETIC TOTAL TEMP POTENTIAL TOTAL3 TEMPAVG PRESSURE GPRESSURE VOLUME PRESSAVG GPRESSAVG
ENERGY: 5000 7865.4680 39184.9817 27514.8474 495.7450 -440192.6419 14247.7880 320.6512 0.0000 109642.7421 -240920.4186 300.7060 -350563.1607 -240645.4318 265.9004 -13488.7023 40.0539 1670351.5582 -3.2610 2.1356
ENERGY: 105000 8094.7374 40089.1754 27460.7390 476.3470 -432241.8454 11058.4646 333.3068 0.0000 112543.2890 -232185.7861 308.6610 -344729.0751 -231922.0288 309.6667 -13335.4139 5.0642 1653240.1810 -0.5189 -0.4873
ENERGY: 205000 7957.8853 40167.2551 27539.3217 488.6194 -432418.8388 10917.5600 303.7993 0.0000 112866.4184 -232177.9797 309.5472 -345044.3980 -231878.0394 309.8997 -13361.2918 -11.0753 1651432.4100 0.5652 0.5422
ENERGY: 300000 7990.1228 40152.0813 27494.1281 512.1130 -432168.4623 11234.5625 309.9139 0.0000 112517.7264 -231957.8143 308.5909 -344475.5407 -231675.6674 309.8657 -13209.4324 114.8524 1648249.2779 9.5984 9.6120
ENERGY: 400000 7938.4676 40187.8793 27605.2879 490.2292 -432301.9316 10788.9283 304.3276 0.0000 112073.0695 -232913.7421 307.3714 -344986.8116 -232637.3445 309.8871 -13543.5683 -169.6981 1646840.1864 2.0044 2.0860
ENERGY: 500000 8011.3055 39940.4806 27504.4804 526.3422 -432812.5563 11347.6835 288.0103 0.0000 112796.2353 -232398.0186 309.3548 -345194.2539 -232123.0428 309.8885 -13518.9357 -134.7679 1648701.9862 -1.5131 -1.4916
