Info: SIMULATION PARAMETERS:
Info: TIMESTEP               1
Info: NUMBER OF STEPS        0
Info: STEPS PER CYCLE        20
Info: PERIODIC CELL BASIS 1  120.622 0 0
Info: PERIODIC CELL BASIS 2  0 121.704 0
Info: PERIODIC CELL BASIS 3  0 0 116.489
Info: PERIODIC CELL CENTER   -0.44 0.232 1.462
Info: WRAPPING ALL CLUSTERS AROUND PERIODIC BOUNDARIES ON OUTPUT.
Info: FIRST LDB TIMESTEP     100
Info: LAST LDB TIMESTEP     -1
Info: HOM BACKGROUND SCALING 1
Info: PME BACKGROUND SCALING 1
Info: REMOVING PATCHES FROM PROCESSOR 0
Info: MIN ATOMS PER PATCH    40
Info: VELOCITY FILE          ../phase2a/dat_equil_phase2a5.restart.vel
Info: CENTER OF MASS MOVING INITIALLY? NO
Info: DIELECTRIC             1
Info: EXCLUDE                SCALED ONE-FOUR
Info: 1-4 ELECTROSTATICS SCALED BY 1
Info: MODIFIED 1-4 VDW PARAMETERS WILL BE USED
Info: DCD FILENAME           ./dat_equil_phase2a6.np.dcd
Info: DCD FREQUENCY          5000
Info: DCD FIRST STEP         5000
Info: DCD FILE WILL CONTAIN UNIT CELL DATA
Info: XST FILENAME           ./dat_equil_phase2a6.np.xst
Info: XST FREQUENCY          5000
Info: NO VELOCITY DCD OUTPUT
Info: NO FORCE DCD OUTPUT
Info: OUTPUT FILENAME        ./dat_equil_phase2a6.np
Info: RESTART FILENAME       ./dat_equil_phase2a6.np.restart
Info: RESTART FREQUENCY      5000
Info: BINARY RESTART FILES WILL BE USED
Info: SWITCHING ACTIVE
Info: SWITCHING ON           10
Info: SWITCHING OFF          12
Info: PAIRLIST DISTANCE      13.5
Info: PAIRLIST SHRINK RATE   0.01
Info: PAIRLIST GROW RATE     0.01
Info: PAIRLIST TRIGGER       0.3
Info: PAIRLISTS PER CYCLE    2
Info: PAIRLISTS ENABLED
Info: MARGIN                 2.5
Info: HYDROGEN GROUP CUTOFF  2.5
Info: PATCH DIMENSION        18.5
Info: ENERGY OUTPUT STEPS    5000
Info: CROSSTERM ENERGY INCLUDED IN DIHEDRAL
Info: TIMING OUTPUT STEPS    5000
Info: PRESSURE OUTPUT STEPS  5000
Info: HARMONIC CONSTRAINTS ACTIVE
Info: HARMONIC CONS EXP      2
Info: LANGEVIN DYNAMICS ACTIVE
Info: LANGEVIN TEMPERATURE   310
Info: LANGEVIN DAMPING COEFFICIENT IS 5 INVERSE PS
Info: LANGEVIN DYNAMICS NOT APPLIED TO HYDROGENS
Info: LANGEVIN PISTON PRESSURE CONTROL ACTIVE
Info:        TARGET PRESSURE IS 1.01325 BAR
Info:     OSCILLATION PERIOD IS 200 FS
Info:             DECAY TIME IS 50 FS
Info:     PISTON TEMPERATURE IS 310 K
Info:       PRESSURE CONTROL IS GROUP-BASED
Info:    INITIAL STRAIN RATE IS 3.92641e-07 3.92641e-07 -2.99284e-05
Info:       CELL FLUCTUATION IS ANISOTROPIC
Info:     SHAPE OF CELL IS CONSTRAINED IN X-Y PLANE
Info: PARTICLE MESH EWALD (PME) ACTIVE
Info: PME TOLERANCE               1e-06
Info: PME EWALD COEFFICIENT       0.257952
Info: PME INTERPOLATION ORDER     4
Info: PME GRID DIMENSIONS         128 128 120
Info: PME MAXIMUM GRID SPACING    1
Info: FULL ELECTROSTATIC EVALUATION FREQUENCY      4
Info: USING VERLET I (r-RESPA) MTS SCHEME.
Info: C1 SPLITTING OF LONG RANGE ELECTROSTATICS
Info: PLACING ATOMS IN PATCHES BY HYDROGEN GROUPS
Info: RIGID BONDS TO HYDROGEN : ALL
Info:         ERROR TOLERANCE : 1e-08
Info:          MAX ITERATIONS : 100
Info: RIGID WATER USING SETTLE ALGORITHM
Info: NONBONDED FORCES EVALUATED EVERY 2 STEPS
Info: RANDOM NUMBER SEED     1406539686
Info: USE HYDROGEN BONDS?    NO
Info: COORDINATE PDB         ../phase2a/dat_equil_phase2a5.coor
Info: STRUCTURE FILE         ../common/ionized.psf
Info: PARAMETER file: CHARMM format!
Info: PARAMETERS             ../common/parameters_all.prm
Info: PARAMETERS             ../common/BHY_hyd_mod.prm
Info: USING ARITHMETIC MEAN TO COMBINE L-J SIGMA PARAMETERS
Info: BINARY COORDINATES     ../phase2a/dat_equil_phase2a5.restart.coor
Info: SUMMARY OF PARAMETERS:
Info: 242 BONDS
Info: 636 ANGLES
Info: 971 DIHEDRAL
Info: 55 IMPROPER
Info: 6 CROSSTERM
Info: 162 VDW
Info: 0 VDW_PAIRS
Info: 0 NBTHOLE_PAIRS
Info: STRUCTURE SUMMARY:
Info: 173276 ATOMS
Info: 137708 BONDS
Info: 163745 ANGLES
Info: 179218 DIHEDRALS
Info: 2048 IMPROPERS
Info: 0 CROSSTERMS
Info: 0 EXCLUSIONS
Info: 1846 CONSTRAINTS
Info: 145702 RIGID BONDS
Info: 374126 DEGREES OF FREEDOM
Info: 62658 HYDROGEN GROUPS
Info: 4 ATOMS IN LARGEST HYDROGEN GROUP
Info: 62658 MIGRATION GROUPS
Info: 4 ATOMS IN LARGEST MIGRATION GROUP
Info: TOTAL MASS = 1.03531e+06 amu
Info: TOTAL CHARGE = 4.75738e-05 e
Info: MASS DENSITY = 1.00534 g/cm^3
Info: ATOM DENSITY = 0.101326 atoms/A^3
Info: REMOVING COM VELOCITY 0.0126273 0.00951072 0.00613174
Info: NONBONDED TABLE R-SQUARED SPACING: 0.0625
Info: NONBONDED TABLE SIZE: 769 POINTS
TCL: Running for 250000 steps
ETITLE: TS BOND ANGLE DIHED IMPRP ELECT VDW BOUNDARY MISC KINETIC TOTAL TEMP POTENTIAL TOTAL3 TEMPAVG PRESSURE GPRESSURE VOLUME PRESSAVG GPRESSAVG
ENERGY: 0 7996.7465 39876.7143 27694.9187 521.4888 -445232.6151 13483.8068 379.9216 0.0000 115034.5538 -240244.4648 309.4574 -355279.0186 -239952.6547 309.4574 -13333.7289 16.9151 1710079.4750 -13333.7289 16.9151
ENERGY: 50000 7894.1848 40054.6423 27531.2998 551.8001 -444521.4352 12530.8101 358.4968 0.0000 115267.2513 -240332.9500 310.0833 -355600.2013 -240039.9943 309.9155 -13470.4905 -31.6725 1691210.8161 2.6694 2.6269
ENERGY: 100000 7989.1071 40223.4809 27554.9659 471.5040 -444447.9811 12227.0490 377.7917 0.0000 114823.7711 -240780.3113 308.8903 -355604.0824 -240495.3378 309.8914 -13467.9737 -20.6604 1691725.1861 4.0341 3.9955
ENERGY: 150000 7969.7201 40024.4787 27650.5862 493.5815 -445692.6185 12565.1055 379.6258 0.0000 115139.6509 -241469.8697 309.7401 -356609.5206 -241167.3940 309.9077 -13524.2952 -17.7725 1689093.2798 7.6325 7.7068
ENERGY: 200000 7933.3650 40132.0861 27538.5453 499.9705 -444336.6482 12317.1003 374.7733 0.0000 115025.6336 -240515.1742 309.4334 -355540.8078 -240208.7807 310.1470 -13349.4827 98.6189 1688882.8812 0.4889 0.4427
ENERGY: 250000 7967.9620 40412.7125 27572.6643 538.7407 -445296.1845 12334.8345 380.0124 0.0000 114870.1194 -241219.1388 309.0150 -356089.2582 -240927.5420 309.7054 -13473.0740 35.9138 1689614.3878 -0.0651 -0.0509
