Info: SIMULATION PARAMETERS:
Info: TIMESTEP               1
Info: NUMBER OF STEPS        0
Info: STEPS PER CYCLE        20
Info: PERIODIC CELL BASIS 1  127.317 0 0
Info: PERIODIC CELL BASIS 2  0 128.456 0
Info: PERIODIC CELL BASIS 3  0 0 103.273
Info: PERIODIC CELL CENTER   -0.44 0.232 1.462
Info: WRAPPING ALL CLUSTERS AROUND PERIODIC BOUNDARIES ON OUTPUT.
Info: FIRST LDB TIMESTEP     100
Info: LAST LDB TIMESTEP     -1
Info: HOM BACKGROUND SCALING 1
Info: PME BACKGROUND SCALING 1
Info: REMOVING PATCHES FROM PROCESSOR 0
Info: MIN ATOMS PER PATCH    40
Info: VELOCITY FILE          ../phase1c/dat_phase1c.vel
Info: CENTER OF MASS MOVING INITIALLY? NO
Info: DIELECTRIC             1
Info: EXCLUDE                SCALED ONE-FOUR
Info: 1-4 ELECTROSTATICS SCALED BY 1
Info: MODIFIED 1-4 VDW PARAMETERS WILL BE USED
Info: DCD FILENAME           ./dat_equil_phase2a1.np.dcd
Info: DCD FREQUENCY          5000
Info: DCD FIRST STEP         5000
Info: DCD FILE WILL CONTAIN UNIT CELL DATA
Info: XST FILENAME           ./dat_equil_phase2a1.np.xst
Info: XST FREQUENCY          5000
Info: NO VELOCITY DCD OUTPUT
Info: NO FORCE DCD OUTPUT
Info: OUTPUT FILENAME        ./dat_equil_phase2a1.np
Info: RESTART FILENAME       ./dat_equil_phase2a1.np.restart
Info: RESTART FREQUENCY      5000
Info: BINARY RESTART FILES WILL BE USED
Info: SWITCHING ACTIVE
Info: SWITCHING ON           10
Info: SWITCHING OFF          12
Info: PAIRLIST DISTANCE      13.5
Info: PAIRLIST SHRINK RATE   0.01
Info: PAIRLIST GROW RATE     0.01
Info: PAIRLIST TRIGGER       0.3
Info: PAIRLISTS PER CYCLE    2
Info: PAIRLISTS ENABLED
Info: MARGIN                 1.5
Info: HYDROGEN GROUP CUTOFF  2.5
Info: PATCH DIMENSION        17.5
Info: ENERGY OUTPUT STEPS    5000
Info: CROSSTERM ENERGY INCLUDED IN DIHEDRAL
Info: TIMING OUTPUT STEPS    5000
Info: PRESSURE OUTPUT STEPS  5000
Info: HARMONIC CONSTRAINTS ACTIVE
Info: HARMONIC CONS EXP      2
Info: LANGEVIN DYNAMICS ACTIVE
Info: LANGEVIN TEMPERATURE   310
Info: LANGEVIN DAMPING COEFFICIENT IS 5 INVERSE PS
Info: LANGEVIN DYNAMICS NOT APPLIED TO HYDROGENS
Info: LANGEVIN PISTON PRESSURE CONTROL ACTIVE
Info:        TARGET PRESSURE IS 1.01325 BAR
Info:     OSCILLATION PERIOD IS 200 FS
Info:             DECAY TIME IS 50 FS
Info:     PISTON TEMPERATURE IS 310 K
Info:       PRESSURE CONTROL IS GROUP-BASED
Info:    INITIAL STRAIN RATE IS -1.07875e-06 -1.07875e-06 -2.54423e-06
Info:       CELL FLUCTUATION IS ANISOTROPIC
Info:     SHAPE OF CELL IS CONSTRAINED IN X-Y PLANE
Info: PARTICLE MESH EWALD (PME) ACTIVE
Info: PME TOLERANCE               1e-06
Info: PME EWALD COEFFICIENT       0.257952
Info: PME INTERPOLATION ORDER     4
Info: PME GRID DIMENSIONS         128 132 108
Info: PME MAXIMUM GRID SPACING    1
Info: FULL ELECTROSTATIC EVALUATION FREQUENCY      4
Info: USING VERLET I (r-RESPA) MTS SCHEME.
Info: C1 SPLITTING OF LONG RANGE ELECTROSTATICS
Info: PLACING ATOMS IN PATCHES BY HYDROGEN GROUPS
Info: RIGID BONDS TO HYDROGEN : ALL
Info:         ERROR TOLERANCE : 1e-08
Info:          MAX ITERATIONS : 100
Info: RIGID WATER USING SETTLE ALGORITHM
Info: NONBONDED FORCES EVALUATED EVERY 2 STEPS
Info: RANDOM NUMBER SEED     1406291348
Info: USE HYDROGEN BONDS?    NO
Info: COORDINATE PDB         ../phase1c/dat_phase1c.coor
Info: STRUCTURE FILE         ../common/ionized.psf
Info: PARAMETER file: CHARMM format!
Info: PARAMETERS             ../common/parameters_all.prm
Info: PARAMETERS             ../common/BHY_hyd_mod.prm
Info: USING ARITHMETIC MEAN TO COMBINE L-J SIGMA PARAMETERS
Info: SUMMARY OF PARAMETERS:
Info: 242 BONDS
Info: 636 ANGLES
Info: 971 DIHEDRAL
Info: 55 IMPROPER
Info: 6 CROSSTERM
Info: 162 VDW
Info: 0 VDW_PAIRS
Info: 0 NBTHOLE_PAIRS
Info: STRUCTURE SUMMARY:
Info: 173276 ATOMS
Info: 137708 BONDS
Info: 163745 ANGLES
Info: 179218 DIHEDRALS
Info: 2048 IMPROPERS
Info: 0 CROSSTERMS
Info: 0 EXCLUSIONS
Info: 1846 CONSTRAINTS
Info: 145702 RIGID BONDS
Info: 374126 DEGREES OF FREEDOM
Info: 62658 HYDROGEN GROUPS
Info: 4 ATOMS IN LARGEST HYDROGEN GROUP
Info: 62658 MIGRATION GROUPS
Info: 4 ATOMS IN LARGEST MIGRATION GROUP
Info: TOTAL MASS = 1.03531e+06 amu
Info: TOTAL CHARGE = 4.75738e-05 e
Info: MASS DENSITY = 1.01789 g/cm^3
Info: ATOM DENSITY = 0.102591 atoms/A^3
Info: REMOVING COM VELOCITY -0.0130046 -0.000647639 -0.025534
Info: NONBONDED TABLE R-SQUARED SPACING: 0.0625
Info: NONBONDED TABLE SIZE: 769 POINTS
TCL: Minimizing for 2500 steps
ETITLE: TS BOND ANGLE DIHED IMPRP ELECT VDW BOUNDARY MISC KINETIC TOTAL TEMP POTENTIAL TOTAL3 TEMPAVG PRESSURE GPRESSURE VOLUME PRESSAVG GPRESSAVG
ENERGY: 0 7609.3514 39742.9976 27657.6454 378.2170 -444655.3988 15707.7465 0.0000 0.0000 0.0000 -353559.4409 0.0000 -353559.4409 -353559.4409 0.0000 12978.9529 -709.0349 1688991.9675 12978.9529 -709.0349
ENERGY: 500 17107.5350 19699.8572 23009.2959 70.5659 -595473.4315 29113.2215 206.0433 0.0000 0.0000 -506266.9127 0.0000 -506266.9127 -506266.9127 0.0000 -5156.5237 -5059.2211 1688991.9675 -5156.5237 -5059.2211
ENERGY: 1000 17351.2511 19669.4305 22683.8246 66.4530 -608072.6240 34034.1172 213.1082 0.0000 0.0000 -514054.4394 0.0000 -514054.4394 -514054.4394 0.0000 -4686.8817 -4742.6193 1688991.9675 -4686.8817 -4742.6193
ENERGY: 1500 17772.6721 19692.8131 22570.4776 66.0823 -613125.9131 36223.7152 218.3565 0.0000 0.0000 -516581.7962 0.0000 -516581.7962 -516581.7962 0.0000 -4562.4124 -4523.3772 1688991.9675 -4562.4124 -4523.3772
ENERGY: 2000 17855.7085 19730.4143 22509.2936 64.9977 -616082.0069 37755.5308 222.1349 0.0000 0.0000 -517943.9271 0.0000 -517943.9271 -517943.9271 0.0000 -4340.6178 -4335.7766 1688991.9675 -4340.6178 -4335.7766
ENERGY: 2500 17960.4220 19740.4835 22470.1048 64.9484 -618024.4404 38628.7842 224.0440 0.0000 0.0000 -518935.6535 0.0000 -518935.6535 -518935.6535 0.0000 -4247.2803 -4234.4543 1688991.9675 -4247.2803 -4234.4543
TCL: Running for 250000 steps
ETITLE: TS BOND ANGLE DIHED IMPRP ELECT VDW BOUNDARY MISC KINETIC TOTAL TEMP POTENTIAL TOTAL3 TEMPAVG PRESSURE GPRESSURE VOLUME PRESSAVG GPRESSAVG
ENERGY: 5000 8023.0280 39380.5393 27616.5330 478.3941 -451929.1848 14458.1928 345.5889 0.0000 111555.6448 -250071.2639 300.0987 -361626.9087 -249783.5160 265.8581 -13737.6200 20.0373 1688887.6724 1.1497 6.6911
ENERGY: 55000 7886.7239 40343.1375 27600.1334 525.5946 -444173.5343 12512.6391 386.4006 0.0000 114459.9981 -240458.9072 307.9117 -354918.9053 -240174.5829 309.7778 -13399.6397 36.8775 1689559.7231 -1.4215 -1.4075
ENERGY: 105000 7977.9275 40200.6354 27740.7116 525.2475 -445681.1341 12620.5292 358.2306 0.0000 115106.5476 -241151.3048 309.6510 -356257.8524 -240848.5074 309.5365 -13542.3873 -29.8097 1689419.3986 2.5201 2.5833
ENERGY: 150000 7936.5295 40196.5864 27526.2300 522.3489 -445372.3777 13011.4638 363.2609 0.0000 114964.8943 -240851.0639 309.2700 -355815.9582 -240551.9184 309.8997 -13458.7999 9.8875 1691433.3605 -0.3372 -0.3464
ENERGY: 200000 8054.6394 40162.0536 27543.9627 508.2116 -445474.9477 13087.4107 378.0675 0.0000 114801.8869 -240938.7153 308.8314 -355740.6022 -240658.8177 309.5242 -13642.5516 -158.4898 1690243.9394 -0.5090 -0.4922
ENERGY: 250000 7983.0999 40178.1805 27631.8876 521.3286 -444500.6326 12276.3244 358.6840 0.0000 114509.1725 -241041.9551 308.0440 -355551.1276 -240753.4055 309.5801 -13611.8774 -148.4095 1690317.1930 0.2013 0.1903
