Info: SIMULATION PARAMETERS:
Info: TIMESTEP               1
Info: NUMBER OF STEPS        0
Info: STEPS PER CYCLE        20
Info: PERIODIC CELL BASIS 1  133.95 0 0
Info: PERIODIC CELL BASIS 2  0 139.587 0
Info: PERIODIC CELL BASIS 3  0 0 117.935
Info: PERIODIC CELL CENTER   39.571 42.926 -0.222
Info: WRAPPING ALL CLUSTERS AROUND PERIODIC BOUNDARIES ON OUTPUT.
Info: FIRST LDB TIMESTEP     100
Info: LAST LDB TIMESTEP     -1
Info: HOM BACKGROUND SCALING 1
Info: PME BACKGROUND SCALING 1
Info: MAX SELF PARTITIONS    20
Info: MAX PAIR PARTITIONS    8
Info: SELF PARTITION ATOMS   154
Info: SELF2 PARTITION ATOMS   154
Info: PAIR PARTITION ATOMS   318
Info: PAIR2 PARTITION ATOMS  637
Info: MIN ATOMS PER PATCH    100
Info: VELOCITY FILE          /home/jam2079/Pathrover/3tt1/phase1c/dat_phase1c.vel
Info: CENTER OF MASS MOVING INITIALLY? NO
Info: DIELECTRIC             1
Info: EXCLUDE                SCALED ONE-FOUR
Info: 1-4 ELECTROSTATICS SCALED BY 1
Info: MODIFIED 1-4 VDW PARAMETERS WILL BE USED
Info: DCD FILENAME           ./dat_equil_phase2a1.np.dcd
Info: DCD FREQUENCY          5000
Info: DCD FIRST STEP         5000
Info: DCD FILE WILL CONTAIN UNIT CELL DATA
Info: XST FILENAME           ./dat_equil_phase2a1.np.xst
Info: XST FREQUENCY          5000
Info: NO VELOCITY DCD OUTPUT
Info: OUTPUT FILENAME        ./dat_equil_phase2a1.np
Info: RESTART FILENAME       ./dat_equil_phase2a1.np.restart
Info: RESTART FREQUENCY      5000
Info: BINARY RESTART FILES WILL BE USED
Info: SWITCHING ACTIVE
Info: SWITCHING ON           10
Info: SWITCHING OFF          12
Info: PAIRLIST DISTANCE      13.5
Info: PAIRLIST SHRINK RATE   0.01
Info: PAIRLIST GROW RATE     0.01
Info: PAIRLIST TRIGGER       0.3
Info: PAIRLISTS PER CYCLE    2
Info: PAIRLISTS ENABLED
Info: MARGIN                 1.5
Info: HYDROGEN GROUP CUTOFF  2.5
Info: PATCH DIMENSION        17.5
Info: ENERGY OUTPUT STEPS    5000
Info: CROSSTERM ENERGY INCLUDED IN DIHEDRAL
Info: TIMING OUTPUT STEPS    5000
Info: PRESSURE OUTPUT STEPS  5000
Info: HARMONIC CONSTRAINTS ACTIVE
Info: HARMONIC CONS EXP      2
Info: LANGEVIN DYNAMICS ACTIVE
Info: LANGEVIN TEMPERATURE   310
Info: LANGEVIN DAMPING COEFFICIENT IS 5 INVERSE PS
Info: LANGEVIN DYNAMICS NOT APPLIED TO HYDROGENS
Info: LANGEVIN PISTON PRESSURE CONTROL ACTIVE
Info:        TARGET PRESSURE IS 1.01325 BAR
Info:     OSCILLATION PERIOD IS 200 FS
Info:             DECAY TIME IS 50 FS
Info:     PISTON TEMPERATURE IS 310 K
Info:       PRESSURE CONTROL IS GROUP-BASED
Info:    INITIAL STRAIN RATE IS 3.03228e-06 3.03228e-06 -3.35943e-07
Info:       CELL FLUCTUATION IS ANISOTROPIC
Info:     SHAPE OF CELL IS CONSTRAINED IN X-Y PLANE
Info: PARTICLE MESH EWALD (PME) ACTIVE
Info: PME TOLERANCE               1e-06
Info: PME EWALD COEFFICIENT       0.257952
Info: PME INTERPOLATION ORDER     4
Info: PME GRID DIMENSIONS         144 144 120
Info: PME MAXIMUM GRID SPACING    1
Info: FULL ELECTROSTATIC EVALUATION FREQUENCY      4
Info: USING VERLET I (r-RESPA) MTS SCHEME.
Info: C1 SPLITTING OF LONG RANGE ELECTROSTATICS
Info: PLACING ATOMS IN PATCHES BY HYDROGEN GROUPS
Info: RIGID BONDS TO HYDROGEN : ALL
Info:         ERROR TOLERANCE : 1e-08
Info:          MAX ITERATIONS : 100
Info: RIGID WATER USING SETTLE ALGORITHM
Info: NONBONDED FORCES EVALUATED EVERY 2 STEPS
Info: RANDOM NUMBER SEED     1399315988
Info: USE HYDROGEN BONDS?    NO
Info: COORDINATE PDB         /home/jam2079/Pathrover/3tt1/phase1c/dat_phase1c.coor
Info: STRUCTURE FILE         /home/jam2079/Pathrover/3tt1/common/ionized.psf
Info: PARAMETER file: CHARMM format!
Info: PARAMETERS             /home/jam2079/Pathrover/3tt1/common/parameters_all.prm
Info: USING ARITHMETIC MEAN TO COMBINE L-J SIGMA PARAMETERS
Info: SUMMARY OF PARAMETERS:
Info: 231 BONDS
Info: 615 ANGLES
Info: 936 DIHEDRAL
Info: 55 IMPROPER
Info: 6 CROSSTERM
Info: 152 VDW
Info: 0 VDW_PAIRS
Info: STRUCTURE SUMMARY:
Info: 223945 ATOMS
Info: 174173 BONDS
Info: 193453 ANGLES
Info: 201079 DIHEDRALS
Info: 2283 IMPROPERS
Info: 0 CROSSTERMS
Info: 0 EXCLUSIONS
Info: 2063 CONSTRAINTS
Info: 192958 RIGID BONDS
Info: 478877 DEGREES OF FREEDOM
Info: 80205 HYDROGEN GROUPS
Info: 4 ATOMS IN LARGEST HYDROGEN GROUP
Info: 80205 MIGRATION GROUPS
Info: 4 ATOMS IN LARGEST MIGRATION GROUP
Info: TOTAL MASS = 1.33978e+06 amu
Info: TOTAL CHARGE = 5.37336e-05 e
Info: MASS DENSITY = 1.00893 g/cm^3
Info: ATOM DENSITY = 0.101557 atoms/A^3
Info: REMOVING COM VELOCITY 0.024885 0.00116531 0.000690357
Info: NONBONDED TABLE R-SQUARED SPACING: 0.0625
Info: NONBONDED TABLE SIZE: 769 POINTS
TCL: Minimizing for 2500 steps
ETITLE: TS BOND ANGLE DIHED IMPRP ELECT VDW BOUNDARY MISC KINETIC TOTAL TEMP POTENTIAL TOTAL3 TEMPAVG PRESSURE GPRESSURE VOLUME PRESSAVG GPRESSAVG
ENERGY: 0 8090.3312 44305.1452 30795.7731 473.3157 -605500.6225 26141.0912 0.0000 0.0000 0.0000 -495694.9662 0.0000 -495694.9662 -495694.9662 0.0000 13484.2359 -1053.8455 2205110.7316 13484.2359 -1053.8455
ENERGY: 500 22924.0563 24508.7902 25583.0801 76.9558 -817130.3588 48831.5744 99.3101 0.0000 0.0000 -695106.5919 0.0000 -695106.5919 -695106.5919 0.0000 -5168.7438 -5324.8915 2205110.7316 -5168.7438 -5324.8915
ENERGY: 1000 24110.1068 24852.7849 25276.5071 69.4732 -834265.2737 55109.0813 104.2806 0.0000 0.0000 -704743.0398 0.0000 -704743.0398 -704743.0398 0.0000 -5001.0435 -4987.1380 2205110.7316 -5001.0435 -4987.1380
ENERGY: 1500 24510.0283 24948.0775 25135.6880 69.1915 -842542.2370 59240.0549 111.5058 0.0000 0.0000 -708527.6910 0.0000 -708527.6910 -708527.6910 0.0000 -4661.5332 -4638.1252 2205110.7316 -4661.5332 -4638.1252
ENERGY: 2000 24699.1355 25025.1596 25076.0643 69.2067 -846415.2753 60913.6784 113.6392 0.0000 0.0000 -710518.3916 0.0000 -710518.3916 -710518.3916 0.0000 -4531.0434 -4504.3030 2205110.7316 -4531.0434 -4504.3030
ENERGY: 2500 24808.9189 25095.5483 25038.5354 69.0168 -849370.0008 62392.8131 115.1613 0.0000 0.0000 -711850.0071 0.0000 -711850.0071 -711850.0071 0.0000 -4347.2445 -4343.4279 2205110.7316 -4347.2445 -4343.4279
TCL: Running for 250000 steps
ETITLE: TS BOND ANGLE DIHED IMPRP ELECT VDW BOUNDARY MISC KINETIC TOTAL TEMP POTENTIAL TOTAL3 TEMPAVG PRESSURE GPRESSURE VOLUME PRESSAVG GPRESSAVG
ENERGY: 5000 8834.4257 44082.6112 30690.6513 567.2201 -617958.9186 28435.8137 241.9995 0.0000 142792.6498 -362313.5475 300.1043 -505106.1972 -361971.7672 265.3113 -14601.4651 155.3801 2199236.4933 -2.7246 3.2800
ENERGY: 55000 9018.3665 44969.3822 30907.1739 567.4417 -606669.7796 24496.6351 248.5109 0.0000 146894.8731 -349567.3963 308.7259 -496462.2693 -349209.2854 310.0907 -14434.4410 -9.8249 2194989.0428 1.6040 1.6225
ENERGY: 105000 9009.1078 44952.1080 30854.3690 600.8808 -606307.0397 24826.5365 245.4196 0.0000 147135.9741 -348682.6439 309.2326 -495818.6180 -348346.6142 309.2843 -14406.9461 26.8736 2191560.4628 0.0256 -0.0289
ENERGY: 150000 8927.9619 44753.8380 30744.8975 544.0323 -607543.7503 24757.2613 255.2759 0.0000 147342.7101 -350217.7734 309.6671 -497560.4834 -349837.2424 309.8635 -14402.7564 76.0131 2190548.2270 -0.0190 0.0363
ENERGY: 200000 8982.7617 44984.2432 30929.7430 583.8448 -606652.7807 24553.5567 239.0795 0.0000 146930.6212 -349448.9306 308.8010 -496379.5518 -349062.1239 309.7099 -14533.8496 -113.6772 2194684.3416 1.5817 1.5282
ENERGY: 250000 8939.5380 45109.0543 30739.7701 553.8048 -607145.4582 24295.0189 237.0002 0.0000 146826.2966 -350444.9755 308.5818 -497271.2721 -350079.3425 309.9614 -14540.3634 -84.3722 2191605.6725 -1.3970 -1.2992
