Info: SIMULATION PARAMETERS:
Info: TIMESTEP               1
Info: NUMBER OF STEPS        0
Info: STEPS PER CYCLE        20
Info: PERIODIC CELL BASIS 1  120.915 0 0
Info: PERIODIC CELL BASIS 2  0 121.999 0
Info: PERIODIC CELL BASIS 3  0 0 115.755
Info: PERIODIC CELL CENTER   -0.389 0.194 1.795
Info: WRAPPING ALL CLUSTERS AROUND PERIODIC BOUNDARIES ON OUTPUT.
Info: FIRST LDB TIMESTEP     100
Info: LAST LDB TIMESTEP     -1
Info: HOM BACKGROUND SCALING 1
Info: PME BACKGROUND SCALING 1
Info: MAX SELF PARTITIONS    20
Info: MAX PAIR PARTITIONS    8
Info: SELF PARTITION ATOMS   154
Info: SELF2 PARTITION ATOMS   154
Info: PAIR PARTITION ATOMS   318
Info: PAIR2 PARTITION ATOMS  637
Info: MIN ATOMS PER PATCH    100
Info: VELOCITY FILE          /home/jam2079/Pathrover/2jln/phase2a/dat_equil_phase2a6.restart.vel
Info: CENTER OF MASS MOVING INITIALLY? NO
Info: DIELECTRIC             1
Info: EXCLUDE                SCALED ONE-FOUR
Info: 1-4 ELECTROSTATICS SCALED BY 1
Info: MODIFIED 1-4 VDW PARAMETERS WILL BE USED
Info: DCD FILENAME           ./dat_phase2b1.dcd
Info: DCD FREQUENCY          5000
Info: DCD FIRST STEP         5000
Info: DCD FILE WILL CONTAIN UNIT CELL DATA
Info: XST FILENAME           ./dat_phase2b1.xst
Info: XST FREQUENCY          5000
Info: NO VELOCITY DCD OUTPUT
Info: OUTPUT FILENAME        ./dat_phase2b1
Info: RESTART FILENAME       ./dat_phase2b1.restart
Info: RESTART FREQUENCY      5000
Info: BINARY RESTART FILES WILL BE USED
Info: SWITCHING ACTIVE
Info: SWITCHING ON           10
Info: SWITCHING OFF          12
Info: PAIRLIST DISTANCE      13.5
Info: PAIRLIST SHRINK RATE   0.01
Info: PAIRLIST GROW RATE     0.01
Info: PAIRLIST TRIGGER       0.3
Info: PAIRLISTS PER CYCLE    2
Info: PAIRLISTS ENABLED
Info: MARGIN                 1.5
Info: HYDROGEN GROUP CUTOFF  2.5
Info: PATCH DIMENSION        17.5
Info: ENERGY OUTPUT STEPS    5000
Info: CROSSTERM ENERGY INCLUDED IN DIHEDRAL
Info: TIMING OUTPUT STEPS    5000
Info: PRESSURE OUTPUT STEPS  5000
Info: HARMONIC CONSTRAINTS ACTIVE
Info: HARMONIC CONS EXP      2
Info: LANGEVIN DYNAMICS ACTIVE
Info: LANGEVIN TEMPERATURE   310
Info: LANGEVIN DAMPING COEFFICIENT IS 5 INVERSE PS
Info: LANGEVIN DYNAMICS NOT APPLIED TO HYDROGENS
Info: LANGEVIN PISTON PRESSURE CONTROL ACTIVE
Info:        TARGET PRESSURE IS 1.01325 BAR
Info:     OSCILLATION PERIOD IS 200 FS
Info:             DECAY TIME IS 50 FS
Info:     PISTON TEMPERATURE IS 310 K
Info:       PRESSURE CONTROL IS GROUP-BASED
Info:    INITIAL STRAIN RATE IS 1.11758e-07 1.11758e-07 -1.73558e-06
Info:       CELL FLUCTUATION IS ANISOTROPIC
Info:     SHAPE OF CELL IS CONSTRAINED IN X-Y PLANE
Info: PARTICLE MESH EWALD (PME) ACTIVE
Info: PME TOLERANCE               1e-06
Info: PME EWALD COEFFICIENT       0.257952
Info: PME INTERPOLATION ORDER     4
Info: PME GRID DIMENSIONS         128 128 120
Info: PME MAXIMUM GRID SPACING    1
Info: FULL ELECTROSTATIC EVALUATION FREQUENCY      4
Info: USING VERLET I (r-RESPA) MTS SCHEME.
Info: C1 SPLITTING OF LONG RANGE ELECTROSTATICS
Info: PLACING ATOMS IN PATCHES BY HYDROGEN GROUPS
Info: RIGID BONDS TO HYDROGEN : ALL
Info:         ERROR TOLERANCE : 1e-08
Info:          MAX ITERATIONS : 100
Info: RIGID WATER USING SETTLE ALGORITHM
Info: NONBONDED FORCES EVALUATED EVERY 2 STEPS
Info: RANDOM NUMBER SEED     1399218308
Info: USE HYDROGEN BONDS?    NO
Info: COORDINATE PDB         /home/jam2079/Pathrover/2jln/phase2a/dat_equil_phase2a6.coor
Info: STRUCTURE FILE         /home/jam2079/Pathrover/2jln/common/ionized.psf
Info: PARAMETER file: CHARMM format!
Info: PARAMETERS             /home/jam2079/Pathrover/2jln/common/parameters_all.prm
Info: USING ARITHMETIC MEAN TO COMBINE L-J SIGMA PARAMETERS
Info: BINARY COORDINATES     /home/jam2079/Pathrover/2jln/phase2a/dat_equil_phase2a6.restart.coor
Info: SUMMARY OF PARAMETERS:
Info: 231 BONDS
Info: 615 ANGLES
Info: 936 DIHEDRAL
Info: 55 IMPROPER
Info: 6 CROSSTERM
Info: 152 VDW
Info: 0 VDW_PAIRS
Info: STRUCTURE SUMMARY:
Info: 172765 ATOMS
Info: 137441 BONDS
Info: 163935 ANGLES
Info: 179819 DIHEDRALS
Info: 2052 IMPROPERS
Info: 0 CROSSTERMS
Info: 0 EXCLUSIONS
Info: 1846 CONSTRAINTS
Info: 145106 RIGID BONDS
Info: 373189 DEGREES OF FREEDOM
Info: 62497 HYDROGEN GROUPS
Info: 4 ATOMS IN LARGEST HYDROGEN GROUP
Info: 62497 MIGRATION GROUPS
Info: 4 ATOMS IN LARGEST MIGRATION GROUP
Info: TOTAL MASS = 1.03211e+06 amu
Info: TOTAL CHARGE = 4.77266e-05 e
Info: MASS DENSITY = 1.00372 g/cm^3
Info: ATOM DENSITY = 0.101176 atoms/A^3
Info: REMOVING COM VELOCITY -0.00176233 0.010677 0.0268353
Info: NONBONDED TABLE R-SQUARED SPACING: 0.0625
Info: NONBONDED TABLE SIZE: 769 POINTS
TCL: Minimizing for 2500 steps
ETITLE: TS BOND ANGLE DIHED IMPRP ELECT VDW BOUNDARY MISC KINETIC TOTAL TEMP POTENTIAL TOTAL3 TEMPAVG PRESSURE GPRESSURE VOLUME PRESSAVG GPRESSAVG
ENERGY: 0 8109.1985 40131.7757 27792.2059 491.7318 -441317.8623 12330.4436 246.6056 0.0000 0.0000 -352215.9013 0.0000 -352215.9013 -352215.9013 0.0000 11714.5926 -1722.5080 1707560.9341 11714.5926 -1722.5080
ENERGY: 500 16874.6317 19503.4430 22951.0873 68.7856 -591735.3235 28663.8960 152.0203 0.0000 0.0000 -503521.4596 0.0000 -503521.4596 -503521.4596 0.0000 -5185.7784 -5143.0622 1707560.9341 -5185.7784 -5143.0622
ENERGY: 1000 17310.0158 19382.7296 22629.3130 63.2842 -604499.5073 33943.3039 144.2921 0.0000 0.0000 -511026.5688 0.0000 -511026.5688 -511026.5688 0.0000 -4657.9433 -4667.3244 1707560.9341 -4657.9433 -4667.3244
ENERGY: 1500 17607.1090 19518.3864 22525.6789 62.5634 -609114.3722 35697.8424 143.8216 0.0000 0.0000 -513558.9706 0.0000 -513558.9706 -513558.9706 0.0000 -4506.0474 -4474.0169 1707560.9341 -4506.0474 -4474.0169
ENERGY: 2000 17650.7188 19574.4983 22484.3636 62.6410 -611352.4240 36568.2368 143.6365 0.0000 0.0000 -514868.3292 0.0000 -514868.3292 -514868.3292 0.0000 -4367.1246 -4360.2411 1707560.9341 -4367.1246 -4360.2411
ENERGY: 2500 17748.0412 19619.3645 22452.8766 62.0837 -613613.1142 37723.5549 143.3526 0.0000 0.0000 -515863.8406 0.0000 -515863.8406 -515863.8406 0.0000 -4158.4225 -4151.5706 1707560.9341 -4158.4225 -4151.5706
TCL: Running for 500000 steps
ETITLE: TS BOND ANGLE DIHED IMPRP ELECT VDW BOUNDARY MISC KINETIC TOTAL TEMP POTENTIAL TOTAL3 TEMPAVG PRESSURE GPRESSURE VOLUME PRESSAVG GPRESSAVG
ENERGY: 5000 7828.0330 39313.6809 27707.8220 507.5743 -450058.3040 14675.6554 234.6596 0.0000 111025.7568 -248765.1221 299.4231 -359790.8789 -248476.2975 265.7451 -13618.7996 2.2259 1700622.7321 -4.7825 0.6597
ENERGY: 105000 7939.3171 40280.6687 27602.6028 517.8174 -442594.9522 11786.0258 231.5863 0.0000 114583.9878 -239652.9462 309.0192 -354236.9340 -239345.6201 309.3463 -13461.3692 -21.7936 1683170.6322 0.2372 0.2199
ENERGY: 205000 8038.0692 40332.6028 27641.8079 528.9159 -442338.3554 11683.1822 235.0536 0.0000 114594.7942 -239283.9295 309.0484 -353878.7237 -238975.7262 309.9549 -13402.4194 50.9041 1681325.8029 3.6471 3.6937
ENERGY: 300000 7970.4646 40145.2185 27596.1017 489.1488 -441291.3894 11172.2847 227.2476 0.0000 114679.8586 -239011.0649 309.2778 -353690.9235 -238701.9611 310.2241 -13571.0029 -198.9308 1688962.5751 -0.3877 -0.3911
ENERGY: 400000 8041.0711 40049.5248 27620.6372 517.8403 -442407.9178 12569.6956 235.4642 0.0000 114633.1374 -238740.5472 309.1518 -353373.6846 -238457.5176 309.8485 -13248.9553 175.7993 1682914.1958 1.6075 1.5744
ENERGY: 500000 7976.3137 40470.7698 27473.2628 480.9159 -442530.8462 12545.6898 220.8872 0.0000 114784.6636 -238578.3433 309.5604 -353363.0069 -238291.6706 309.6820 -13445.0499 -32.3894 1683376.9917 -2.3771 -2.3891
