Info: SIMULATION PARAMETERS:
Info: TIMESTEP               1
Info: NUMBER OF STEPS        0
Info: STEPS PER CYCLE        20
Info: PERIODIC CELL BASIS 1  156.882 0 0
Info: PERIODIC CELL BASIS 2  0 158.287 0
Info: PERIODIC CELL BASIS 3  0 0 87.286
Info: PERIODIC CELL CENTER   -0.405 0.185 1.712
Info: WRAPPING ALL CLUSTERS AROUND PERIODIC BOUNDARIES ON OUTPUT.
Info: FIRST LDB TIMESTEP     100
Info: LAST LDB TIMESTEP     -1
Info: HOM BACKGROUND SCALING 1
Info: PME BACKGROUND SCALING 1
Info: REMOVING PATCHES FROM PROCESSOR 0
Info: MIN ATOMS PER PATCH    40
Info: INITIAL TEMPERATURE    310
Info: CENTER OF MASS MOVING INITIALLY? NO
Info: DIELECTRIC             1
Info: EXCLUDE                SCALED ONE-FOUR
Info: 1-4 ELECTROSTATICS SCALED BY 1
Info: MODIFIED 1-4 VDW PARAMETERS WILL BE USED
Info: DCD FILENAME           ./dat_phase1.dcd
Info: DCD FREQUENCY          5000
Info: DCD FIRST STEP         5000
Info: DCD FILE WILL CONTAIN UNIT CELL DATA
Info: XST FILENAME           ./dat_phase1.xst
Info: XST FREQUENCY          5000
Info: NO VELOCITY DCD OUTPUT
Info: NO FORCE DCD OUTPUT
Info: OUTPUT FILENAME        ./dat_phase1
Info: RESTART FILENAME       ./dat_phase1.restart
Info: RESTART FREQUENCY      5000
Info: BINARY RESTART FILES WILL BE USED
Info: SWITCHING ACTIVE
Info: SWITCHING ON           10
Info: SWITCHING OFF          12
Info: PAIRLIST DISTANCE      13.5
Info: PAIRLIST SHRINK RATE   0.01
Info: PAIRLIST GROW RATE     0.01
Info: PAIRLIST TRIGGER       0.3
Info: PAIRLISTS PER CYCLE    2
Info: PAIRLISTS ENABLED
Info: MARGIN                 1.5
Info: HYDROGEN GROUP CUTOFF  2.5
Info: PATCH DIMENSION        17.5
Info: ENERGY OUTPUT STEPS    5000
Info: CROSSTERM ENERGY INCLUDED IN DIHEDRAL
Info: TIMING OUTPUT STEPS    5000
Info: PRESSURE OUTPUT STEPS  5000
Info: FIXED ATOMS ACTIVE
Info: LANGEVIN DYNAMICS ACTIVE
Info: LANGEVIN TEMPERATURE   310
Info: LANGEVIN DAMPING COEFFICIENT IS 5 INVERSE PS
Info: LANGEVIN DYNAMICS NOT APPLIED TO HYDROGENS
Info: PARTICLE MESH EWALD (PME) ACTIVE
Info: PME TOLERANCE               1e-06
Info: PME EWALD COEFFICIENT       0.257952
Info: PME INTERPOLATION ORDER     4
Info: PME GRID DIMENSIONS         160 160 88
Info: PME MAXIMUM GRID SPACING    1
Info: FULL ELECTROSTATIC EVALUATION FREQUENCY      4
Info: USING VERLET I (r-RESPA) MTS SCHEME.
Info: C1 SPLITTING OF LONG RANGE ELECTROSTATICS
Info: PLACING ATOMS IN PATCHES BY HYDROGEN GROUPS
Info: RIGID BONDS TO HYDROGEN : ALL
Info:         ERROR TOLERANCE : 1e-08
Info:          MAX ITERATIONS : 100
Info: RIGID WATER USING SETTLE ALGORITHM
Info: NONBONDED FORCES EVALUATED EVERY 2 STEPS
Info: RANDOM NUMBER SEED     1403914629
Info: USE HYDROGEN BONDS?    NO
Info: COORDINATE PDB         ../common/ionized.pdb
Info: STRUCTURE FILE         ../common/ionized.psf
Info: PARAMETER file: CHARMM format!
Info: PARAMETERS             ../common/parameters_all.prm
Info: USING ARITHMETIC MEAN TO COMBINE L-J SIGMA PARAMETERS
Info: SUMMARY OF PARAMETERS:
Info: 231 BONDS
Info: 615 ANGLES
Info: 936 DIHEDRAL
Info: 55 IMPROPER
Info: 6 CROSSTERM
Info: 152 VDW
Info: 0 VDW_PAIRS
Info: 0 NBTHOLE_PAIRS
Info: STRUCTURE SUMMARY:
Info: 174063 ATOMS
Info: 138305 BONDS
Info: 164367 ANGLES
Info: 179819 DIHEDRALS
Info: 2052 IMPROPERS
Info: 0 CROSSTERMS
Info: 0 EXCLUSIONS
Info: 123033 FIXED ATOMS
Info: 146402 RIGID BONDS
Info: 114326 RIGID BONDS BETWEEN FIXED ATOMS
Info: 121014 DEGREES OF FREEDOM
Info: 62931 HYDROGEN GROUPS
Info: 4 ATOMS IN LARGEST HYDROGEN GROUP
Info: 62931 MIGRATION GROUPS
Info: 4 ATOMS IN LARGEST MIGRATION GROUP
Info: 43977 HYDROGEN GROUPS WITH ALL ATOMS FIXED
Info: TOTAL MASS = 1.03996e+06 amu
Info: TOTAL CHARGE = 4.77266e-05 e
Info: MASS DENSITY = 0.796729 g/cm^3
Info: ATOM DENSITY = 0.0803052 atoms/A^3
Info: REMOVING COM VELOCITY 0.00331503 -0.0141137 -0.0102739
Info: NONBONDED TABLE R-SQUARED SPACING: 0.0625
Info: NONBONDED TABLE SIZE: 769 POINTS
TCL: Minimizing for 5000 steps
ETITLE: TS BOND ANGLE DIHED IMPRP ELECT VDW BOUNDARY MISC KINETIC TOTAL TEMP POTENTIAL TOTAL3 TEMPAVG PRESSURE GPRESSURE VOLUME PRESSAVG GPRESSAVG
ENERGY: 0 5093.9497 27854.4368 22164.9902 277.4376 -1901102.4614 9999999999.9999 0.0000 0.0000 0.0000 9999999999.9999 0.0000 9999999999.9999 9999999999.9999 0.0000 9999999999.9999 9999999999.9999 2167519.1851 9999999999.9999 9999999999.9999
ENERGY: 1000 2441.9504 19445.7201 25627.8338 184.1010 -1900359.9050 308.4028 0.0000 0.0000 0.0000 -1852351.8970 0.0000 -1852351.8970 -1852351.8970 0.0000 3071.3059 3090.3314 2167519.1851 3071.3059 3090.3314
ENERGY: 2000 632.1481 6363.2603 21854.4332 115.8610 -1901497.1273 -16513.2602 0.0000 0.0000 0.0000 -1889044.6848 0.0000 -1889044.6848 -1889044.6848 0.0000 131.7280 139.2827 2167519.1851 131.7280 139.2827
ENERGY: 3000 577.5652 5738.6902 20591.3610 99.0599 -1901746.6009 -17742.9369 0.0000 0.0000 0.0000 -1892482.8614 0.0000 -1892482.8614 -1892482.8614 0.0000 -46.8060 -41.5259 2167519.1851 -46.8060 -41.5259
ENERGY: 4000 568.9738 5585.8460 20251.5247 97.0055 -1901811.7766 -18127.8714 0.0000 0.0000 0.0000 -1893436.2979 0.0000 -1893436.2979 -1893436.2979 0.0000 -58.9700 -58.4420 2167519.1851 -58.9700 -58.4420
ENERGY: 5000 564.5379 5513.1148 20067.2357 95.8028 -1901864.8112 -18364.5266 0.0000 0.0000 0.0000 -1893988.6466 0.0000 -1893988.6466 -1893988.6466 0.0000 -54.0620 -54.3697 2167519.1851 -54.0620 -54.3697
TCL: Running for 500000 steps
ETITLE: TS BOND ANGLE DIHED IMPRP ELECT VDW BOUNDARY MISC KINETIC TOTAL TEMP POTENTIAL TOTAL3 TEMPAVG PRESSURE GPRESSURE VOLUME PRESSAVG GPRESSAVG
ENERGY: 5000 516.3312 5551.3343 20067.8289 95.8855 -1901820.0911 -18340.4943 0.0000 0.0000 37183.7414 -1856745.4642 309.2487 -1893929.2057 -1856759.6355 309.2487 244.5556 338.4873 2167519.1851 244.5556 338.4873
ENERGY: 105000 5251.7251 29497.6544 23089.9461 319.1439 -1902665.4666 -15900.6608 0.0000 0.0000 37037.5250 -1823370.1328 308.0326 -1860407.6579 -1823183.2239 309.9693 39.8820 124.8016 2167519.1851 -18.5673 -19.0263
ENERGY: 205000 5229.3742 29345.2088 23060.3803 311.1930 -1902971.3272 -16234.0775 0.0000 0.0000 36903.7478 -1824355.5007 306.9200 -1861259.2485 -1824155.7656 309.2079 -56.7858 38.2321 2167519.1851 -16.4624 -16.8971
ENERGY: 305000 5204.5684 29024.0993 23054.1031 284.4465 -1903041.4078 -16157.4759 0.0000 0.0000 37293.3543 -1824338.3120 310.1603 -1861631.6663 -1824134.8628 310.0007 338.1555 429.3339 2167519.1851 0.7233 0.2732
ENERGY: 405000 5189.8375 29378.2690 23165.9493 304.6792 -1903199.5805 -16174.7222 0.0000 0.0000 37335.6404 -1823999.9272 310.5120 -1861335.5677 -1823813.6787 309.3304 -619.3679 -533.5322 2167519.1851 -2.7791 -3.1891
ENERGY: 505000 5139.2464 29145.0192 23140.0602 325.5471 -1903143.4817 -16424.8497 0.0000 0.0000 37521.8689 -1824296.5896 312.0608 -1861818.4585 -1824106.2752 309.5719 351.7642 428.7934 2167519.1851 -32.0408 -32.5418
