Info: SIMULATION PARAMETERS:
Info: TIMESTEP               1
Info: NUMBER OF STEPS        0
Info: STEPS PER CYCLE        20
Info: PERIODIC CELL BASIS 1  156.882 0 0
Info: PERIODIC CELL BASIS 2  0 158.287 0
Info: PERIODIC CELL BASIS 3  0 0 86.958
Info: PERIODIC CELL CENTER   -0.44 0.232 1.462
Info: WRAPPING ALL CLUSTERS AROUND PERIODIC BOUNDARIES ON OUTPUT.
Info: FIRST LDB TIMESTEP     100
Info: LAST LDB TIMESTEP     -1
Info: HOM BACKGROUND SCALING 1
Info: PME BACKGROUND SCALING 1
Info: REMOVING PATCHES FROM PROCESSOR 0
Info: MIN ATOMS PER PATCH    40
Info: INITIAL TEMPERATURE    310
Info: CENTER OF MASS MOVING INITIALLY? NO
Info: DIELECTRIC             1
Info: EXCLUDE                SCALED ONE-FOUR
Info: 1-4 ELECTROSTATICS SCALED BY 1
Info: MODIFIED 1-4 VDW PARAMETERS WILL BE USED
Info: DCD FILENAME           ./dat_phase1.dcd
Info: DCD FREQUENCY          5000
Info: DCD FIRST STEP         5000
Info: DCD FILE WILL CONTAIN UNIT CELL DATA
Info: XST FILENAME           ./dat_phase1.xst
Info: XST FREQUENCY          5000
Info: NO VELOCITY DCD OUTPUT
Info: NO FORCE DCD OUTPUT
Info: OUTPUT FILENAME        ./dat_phase1
Info: RESTART FILENAME       ./dat_phase1.restart
Info: RESTART FREQUENCY      5000
Info: BINARY RESTART FILES WILL BE USED
Info: SWITCHING ACTIVE
Info: SWITCHING ON           10
Info: SWITCHING OFF          12
Info: PAIRLIST DISTANCE      13.5
Info: PAIRLIST SHRINK RATE   0.01
Info: PAIRLIST GROW RATE     0.01
Info: PAIRLIST TRIGGER       0.3
Info: PAIRLISTS PER CYCLE    2
Info: PAIRLISTS ENABLED
Info: MARGIN                 1.5
Info: HYDROGEN GROUP CUTOFF  2.5
Info: PATCH DIMENSION        17.5
Info: ENERGY OUTPUT STEPS    5000
Info: CROSSTERM ENERGY INCLUDED IN DIHEDRAL
Info: TIMING OUTPUT STEPS    5000
Info: PRESSURE OUTPUT STEPS  5000
Info: FIXED ATOMS ACTIVE
Info: LANGEVIN DYNAMICS ACTIVE
Info: LANGEVIN TEMPERATURE   310
Info: LANGEVIN DAMPING COEFFICIENT IS 5 INVERSE PS
Info: LANGEVIN DYNAMICS NOT APPLIED TO HYDROGENS
Info: PARTICLE MESH EWALD (PME) ACTIVE
Info: PME TOLERANCE               1e-06
Info: PME EWALD COEFFICIENT       0.257952
Info: PME INTERPOLATION ORDER     4
Info: PME GRID DIMENSIONS         160 160 88
Info: PME MAXIMUM GRID SPACING    1
Info: FULL ELECTROSTATIC EVALUATION FREQUENCY      4
Info: USING VERLET I (r-RESPA) MTS SCHEME.
Info: C1 SPLITTING OF LONG RANGE ELECTROSTATICS
Info: PLACING ATOMS IN PATCHES BY HYDROGEN GROUPS
Info: RIGID BONDS TO HYDROGEN : ALL
Info:         ERROR TOLERANCE : 1e-08
Info:          MAX ITERATIONS : 100
Info: RIGID WATER USING SETTLE ALGORITHM
Info: NONBONDED FORCES EVALUATED EVERY 2 STEPS
Info: RANDOM NUMBER SEED     1405704774
Info: USE HYDROGEN BONDS?    NO
Info: COORDINATE PDB         ../common/ionized.pdb
Info: STRUCTURE FILE         ../common/ionized.psf
Info: PARAMETER file: CHARMM format!
Info: PARAMETERS             ../common/parameters_all.prm
Info: PARAMETERS             ../common/BHY_hyd_mod.prm
Info: USING ARITHMETIC MEAN TO COMBINE L-J SIGMA PARAMETERS
Info: SUMMARY OF PARAMETERS:
Info: 242 BONDS
Info: 636 ANGLES
Info: 971 DIHEDRAL
Info: 55 IMPROPER
Info: 6 CROSSTERM
Info: 162 VDW
Info: 0 VDW_PAIRS
Info: 0 NBTHOLE_PAIRS
Info: STRUCTURE SUMMARY:
Info: 173276 ATOMS
Info: 137708 BONDS
Info: 163745 ANGLES
Info: 179218 DIHEDRALS
Info: 2048 IMPROPERS
Info: 0 CROSSTERMS
Info: 0 EXCLUSIONS
Info: 122432 FIXED ATOMS
Info: 145702 RIGID BONDS
Info: 113748 RIGID BONDS BETWEEN FIXED ATOMS
Info: 120578 DEGREES OF FREEDOM
Info: 62658 HYDROGEN GROUPS
Info: 4 ATOMS IN LARGEST HYDROGEN GROUP
Info: 62658 MIGRATION GROUPS
Info: 4 ATOMS IN LARGEST MIGRATION GROUP
Info: 43768 HYDROGEN GROUPS WITH ALL ATOMS FIXED
Info: TOTAL MASS = 1.03531e+06 amu
Info: TOTAL CHARGE = 4.75738e-05 e
Info: MASS DENSITY = 0.796159 g/cm^3
Info: ATOM DENSITY = 0.0802436 atoms/A^3
Info: REMOVING COM VELOCITY 0.00374944 0.0208614 -0.0146725
Info: NONBONDED TABLE R-SQUARED SPACING: 0.0625
Info: NONBONDED TABLE SIZE: 769 POINTS
TCL: Minimizing for 5000 steps
ETITLE: TS BOND ANGLE DIHED IMPRP ELECT VDW BOUNDARY MISC KINETIC TOTAL TEMP POTENTIAL TOTAL3 TEMPAVG PRESSURE GPRESSURE VOLUME PRESSAVG GPRESSAVG
ENERGY: 0 5079.6257 27744.8838 22087.9490 277.8890 -1891028.2202 9999999999.9999 0.0000 0.0000 0.0000 9999999999.9999 0.0000 9999999999.9999 9999999999.9999 0.0000 9999999999.9999 9999999999.9999 2159374.1862 9999999999.9999 9999999999.9999
ENERGY: 1000 3480.2002 21025.9632 25611.4777 184.0789 -1890353.0790 1067.1873 0.0000 0.0000 0.0000 -1838984.1717 0.0000 -1838984.1717 -1838984.1717 0.0000 3074.3305 3194.1878 2159374.1862 3074.3305 3194.1878
ENERGY: 2000 733.0268 7377.1744 22991.0717 132.2248 -1891247.7438 -14327.3163 0.0000 0.0000 0.0000 -1874341.5625 0.0000 -1874341.5625 -1874341.5625 0.0000 472.4568 501.0681 2159374.1862 472.4568 501.0681
ENERGY: 3000 585.3668 5805.0815 20905.4106 107.1527 -1891664.1694 -17244.6330 0.0000 0.0000 0.0000 -1881505.7907 0.0000 -1881505.7907 -1881505.7907 0.0000 115.3453 129.3982 2159374.1862 115.3453 129.3982
ENERGY: 4000 563.9329 5516.4002 20328.3184 102.5626 -1891752.5940 -17864.7449 0.0000 0.0000 0.0000 -1883106.1247 0.0000 -1883106.1247 -1883106.1247 0.0000 41.4981 38.0507 2159374.1862 41.4981 38.0507
ENERGY: 5000 559.4662 5430.0406 20140.2999 98.2564 -1891814.2716 -18158.7922 0.0000 0.0000 0.0000 -1883745.0006 0.0000 -1883745.0006 -1883745.0006 0.0000 32.6727 30.4057 2159374.1862 32.6727 30.4057
TCL: Running for 500000 steps
ETITLE: TS BOND ANGLE DIHED IMPRP ELECT VDW BOUNDARY MISC KINETIC TOTAL TEMP POTENTIAL TOTAL3 TEMPAVG PRESSURE GPRESSURE VOLUME PRESSAVG GPRESSAVG
ENERGY: 5000 511.4373 5468.2503 20140.8728 98.3563 -1891769.5048 -18135.5538 0.0000 0.0000 37182.1203 -1846504.0216 310.3534 -1883686.1419 -1846518.3807 310.3534 334.9062 426.6304 2159374.1862 334.9062 426.6304
ENERGY: 105000 5135.8629 29076.3503 23062.4644 296.6284 -1892814.3075 -15855.8290 0.0000 0.0000 37190.7618 -1813908.0686 310.4255 -1851098.8305 -1813715.4034 309.7283 262.1582 354.2071 2159374.1862 47.7588 47.2970
ENERGY: 205000 5292.9213 29055.1675 23045.7888 304.0709 -1892937.2801 -15890.6122 0.0000 0.0000 37123.1646 -1814006.7792 309.8613 -1851129.9438 -1813815.2281 309.3010 8.1887 94.9134 2159374.1862 52.0986 51.6374
ENERGY: 305000 5150.8635 29406.4185 23070.5911 298.2515 -1893046.4467 -16045.0786 0.0000 0.0000 37085.2754 -1814080.1254 309.5450 -1851165.4008 -1813889.5268 310.0236 -41.3178 40.9502 2159374.1862 65.8091 65.3307
ENERGY: 405000 5216.4931 29081.0187 23171.0886 307.4824 -1893149.0781 -16218.8624 0.0000 0.0000 36771.4743 -1814820.3834 306.9258 -1851591.8576 -1814624.9446 309.9837 103.8636 191.5416 2159374.1862 73.5201 73.0639
ENERGY: 505000 5194.7746 28903.5173 22979.9208 303.9494 -1893188.8736 -16297.7586 0.0000 0.0000 36951.4076 -1815153.0625 308.4276 -1852104.4701 -1814972.0575 309.3841 113.5031 196.9948 2159374.1862 61.2264 60.7675
