Info: SIMULATION PARAMETERS:
Info: TIMESTEP               2
Info: NUMBER OF STEPS        0
Info: STEPS PER CYCLE        12
Info: PERIODIC CELL BASIS 1  123.295 0 0
Info: PERIODIC CELL BASIS 2  0 124.401 0
Info: PERIODIC CELL BASIS 3  0 0 109.492
Info: PERIODIC CELL CENTER   -0.389 0.194 1.795
Info: WRAPPING ALL CLUSTERS AROUND PERIODIC BOUNDARIES ON OUTPUT.
Info: FIRST LDB TIMESTEP     60
Info: LAST LDB TIMESTEP     -1
Info: HOM BACKGROUND SCALING 1
Info: PME BACKGROUND SCALING 1
Info: REMOVING PATCHES FROM PROCESSOR 0
Info: MIN ATOMS PER PATCH    40
Info: VELOCITY FILE          /global/u1/j/jmedina/Pathrover/2jln/phase2b/dat_phase2b3.vel
Info: CENTER OF MASS MOVING INITIALLY? NO
Info: DIELECTRIC             1
Info: EXCLUDE                SCALED ONE-FOUR
Info: 1-4 ELECTROSTATICS SCALED BY 1
Info: MODIFIED 1-4 VDW PARAMETERS WILL BE USED
Info: DCD FILENAME           ./dat_phase3_7.dcd
Info: DCD FREQUENCY          10000
Info: DCD FIRST STEP         10000
Info: DCD FILE WILL CONTAIN UNIT CELL DATA
Info: XST FILENAME           ./dat_phase3_7.xst
Info: XST FREQUENCY          10000
Info: NO VELOCITY DCD OUTPUT
Info: NO FORCE DCD OUTPUT
Info: OUTPUT FILENAME        ./dat_phase3_7
Info: RESTART FILENAME       ./dat_phase3_7.restart
Info: RESTART FREQUENCY      10000
Info: BINARY RESTART FILES WILL BE USED
Info: SWITCHING ACTIVE
Info: SWITCHING ON           10
Info: SWITCHING OFF          12
Info: PAIRLIST DISTANCE      13.5
Info: PAIRLIST SHRINK RATE   0.01
Info: PAIRLIST GROW RATE     0.01
Info: PAIRLIST TRIGGER       0.3
Info: PAIRLISTS PER CYCLE    2
Info: PAIRLISTS ENABLED
Info: MARGIN                 1.5
Info: HYDROGEN GROUP CUTOFF  2.5
Info: PATCH DIMENSION        17.5
Info: ENERGY OUTPUT STEPS    30000
Info: CROSSTERM ENERGY INCLUDED IN DIHEDRAL
Info: TIMING OUTPUT STEPS    10000
Info: PRESSURE OUTPUT STEPS  10000
Info: LANGEVIN DYNAMICS ACTIVE
Info: LANGEVIN TEMPERATURE   310
Info: LANGEVIN DAMPING COEFFICIENT IS 5 INVERSE PS
Info: LANGEVIN DYNAMICS NOT APPLIED TO HYDROGENS
Info: LANGEVIN PISTON PRESSURE CONTROL ACTIVE
Info:        TARGET PRESSURE IS 1.01325 BAR
Info:     OSCILLATION PERIOD IS 200 FS
Info:             DECAY TIME IS 50 FS
Info:     PISTON TEMPERATURE IS 310 K
Info:       PRESSURE CONTROL IS GROUP-BASED
Info:    INITIAL STRAIN RATE IS -1.05557e-05 -1.05557e-05 1.40751e-06
Info:       CELL FLUCTUATION IS ANISOTROPIC
Info:     SHAPE OF CELL IS CONSTRAINED IN X-Y PLANE
Info: PARTICLE MESH EWALD (PME) ACTIVE
Info: PME TOLERANCE               1e-06
Info: PME EWALD COEFFICIENT       0.257952
Info: PME INTERPOLATION ORDER     4
Info: PME GRID DIMENSIONS         128 128 112
Info: PME MAXIMUM GRID SPACING    1
Info: FULL ELECTROSTATIC EVALUATION FREQUENCY      3
Info: USING VERLET I (r-RESPA) MTS SCHEME.
Info: C1 SPLITTING OF LONG RANGE ELECTROSTATICS
Info: PLACING ATOMS IN PATCHES BY HYDROGEN GROUPS
Info: RIGID BONDS TO HYDROGEN : ALL
Info:         ERROR TOLERANCE : 1e-08
Info:          MAX ITERATIONS : 100
Info: RIGID WATER USING SETTLE ALGORITHM
Info: RANDOM NUMBER SEED     1402584408
Info: USE HYDROGEN BONDS?    NO
Info: COORDINATE PDB         /global/u1/j/jmedina/Pathrover/2jln/phase2b/dat_phase2b3.coor
Info: STRUCTURE FILE         /global/u1/j/jmedina/Pathrover/2jln/common/ionized.psf
Info: PARAMETER file: CHARMM format!
Info: PARAMETERS             /global/u1/j/jmedina/Pathrover/2jln/common/parameters_all.prm
Info: USING ARITHMETIC MEAN TO COMBINE L-J SIGMA PARAMETERS
Info: BINARY COORDINATES     /global/u1/j/jmedina/Pathrover/2jln/phase3/dat_phase3_6.restart.coor
Info: SUMMARY OF PARAMETERS:
Info: 231 BONDS
Info: 615 ANGLES
Info: 936 DIHEDRAL
Info: 55 IMPROPER
Info: 6 CROSSTERM
Info: 152 VDW
Info: 0 VDW_PAIRS
Info: 0 NBTHOLE_PAIRS
Info: STRUCTURE SUMMARY:
Info: 172765 ATOMS
Info: 137441 BONDS
Info: 163935 ANGLES
Info: 179819 DIHEDRALS
Info: 2052 IMPROPERS
Info: 0 CROSSTERMS
Info: 0 EXCLUSIONS
Info: 145106 RIGID BONDS
Info: 373189 DEGREES OF FREEDOM
Info: 62497 HYDROGEN GROUPS
Info: 4 ATOMS IN LARGEST HYDROGEN GROUP
Info: 62497 MIGRATION GROUPS
Info: 4 ATOMS IN LARGEST MIGRATION GROUP
Info: TOTAL MASS = 1.03211e+06 amu
Info: TOTAL CHARGE = 4.77266e-05 e
Info: MASS DENSITY = 1.02055 g/cm^3
Info: ATOM DENSITY = 0.102874 atoms/A^3
Info: REMOVING COM VELOCITY -0.0155177 -0.0137571 -0.0128811
Info: NONBONDED TABLE R-SQUARED SPACING: 0.0625
Info: NONBONDED TABLE SIZE: 769 POINTS
TCL: Running for 10200000 steps
ETITLE: TS BOND ANGLE DIHED IMPRP ELECT VDW BOUNDARY MISC KINETIC TOTAL TEMP POTENTIAL TOTAL3 TEMPAVG PRESSURE GPRESSURE VOLUME PRESSAVG GPRESSAVG
ENERGY: 0 8204.0919 41190.0160 27386.4914 551.4912 -442297.6192 11387.6109 0.0000 0.0000 90961.6276 -262616.2901 245.3126 -353577.9178 -261879.9166 245.3126 11.9310 44.8109 1679390.6276 11.9310 44.8109
ENERGY: 990000 8292.2143 41199.4263 27556.2423 504.5065 -442555.1070 11837.9667 0.0000 0.0000 114827.8029 -238336.9481 309.6768 -353164.7510 -237600.3602 309.4338 3.9850 32.1142 1684470.5751 -0.4063 -0.4147
ENERGY: 1980000 8147.6172 41480.0772 27442.8766 536.2045 -442990.0007 11920.5167 0.0000 0.0000 114522.7456 -238939.9629 308.8541 -353462.7085 -238208.1290 309.2500 6.0823 43.3477 1679446.1838 1.1160 1.1276
ENERGY: 2970000 8270.6876 41298.7715 27487.5369 508.2611 -442929.8284 12058.5599 0.0000 0.0000 115297.1329 -238008.8785 310.9425 -353306.0114 -237288.1246 309.4397 -46.2881 -17.2753 1679668.9120 0.5751 0.5841
ENERGY: 3960000 8223.8675 41124.8630 27534.8593 514.1144 -443185.4799 12019.0321 0.0000 0.0000 114435.9163 -239332.8272 308.6199 -353768.7435 -238595.2515 309.4004 -24.4643 4.9834 1681713.2956 0.2951 0.3078
ENERGY: 4950000 8324.8939 41113.1595 27476.7494 509.8243 -442480.4736 12199.9041 0.0000 0.0000 114328.5744 -238527.3680 308.3304 -352855.9424 -237784.1548 309.3026 173.5779 206.1748 1683409.8792 1.9308 1.9496
