Info: SIMULATION PARAMETERS:
Info: TIMESTEP               1
Info: NUMBER OF STEPS        0
Info: STEPS PER CYCLE        20
Info: PERIODIC CELL BASIS 1  140.391 0 0
Info: PERIODIC CELL BASIS 2  0 142.116 0
Info: PERIODIC CELL BASIS 3  0 0 115.586
Info: PERIODIC CELL CENTER   39.761 40.384 -1.088
Info: WRAPPING ALL CLUSTERS AROUND PERIODIC BOUNDARIES ON OUTPUT.
Info: FIRST LDB TIMESTEP     100
Info: LAST LDB TIMESTEP     -1
Info: HOM BACKGROUND SCALING 1
Info: PME BACKGROUND SCALING 1
Info: REMOVING PATCHES FROM PROCESSOR 0
Info: MIN ATOMS PER PATCH    40
Info: VELOCITY FILE          ../phase2a/dat_equil_phase2a6.restart.vel
Info: CENTER OF MASS MOVING INITIALLY? NO
Info: DIELECTRIC             1
Info: EXCLUDE                SCALED ONE-FOUR
Info: 1-4 ELECTROSTATICS SCALED BY 1
Info: MODIFIED 1-4 VDW PARAMETERS WILL BE USED
Info: DCD FILENAME           ./dat_phase2b1.dcd
Info: DCD FREQUENCY          5000
Info: DCD FIRST STEP         5000
Info: DCD FILE WILL CONTAIN UNIT CELL DATA
Info: XST FILENAME           ./dat_phase2b1.xst
Info: XST FREQUENCY          5000
Info: NO VELOCITY DCD OUTPUT
Info: NO FORCE DCD OUTPUT
Info: OUTPUT FILENAME        ./dat_phase2b1
Info: RESTART FILENAME       ./dat_phase2b1.restart
Info: RESTART FREQUENCY      5000
Info: BINARY RESTART FILES WILL BE USED
Info: SWITCHING ACTIVE
Info: SWITCHING ON           10
Info: SWITCHING OFF          12
Info: PAIRLIST DISTANCE      13.5
Info: PAIRLIST SHRINK RATE   0.01
Info: PAIRLIST GROW RATE     0.01
Info: PAIRLIST TRIGGER       0.3
Info: PAIRLISTS PER CYCLE    2
Info: PAIRLISTS ENABLED
Info: MARGIN                 1.5
Info: HYDROGEN GROUP CUTOFF  2.5
Info: PATCH DIMENSION        17.5
Info: ENERGY OUTPUT STEPS    5000
Info: CROSSTERM ENERGY INCLUDED IN DIHEDRAL
Info: TIMING OUTPUT STEPS    5000
Info: PRESSURE OUTPUT STEPS  5000
Info: HARMONIC CONSTRAINTS ACTIVE
Info: HARMONIC CONS EXP      2
Info: LANGEVIN DYNAMICS ACTIVE
Info: LANGEVIN TEMPERATURE   310
Info: LANGEVIN DAMPING COEFFICIENT IS 5 INVERSE PS
Info: LANGEVIN DYNAMICS NOT APPLIED TO HYDROGENS
Info: LANGEVIN PISTON PRESSURE CONTROL ACTIVE
Info:        TARGET PRESSURE IS 1.01325 BAR
Info:     OSCILLATION PERIOD IS 200 FS
Info:             DECAY TIME IS 50 FS
Info:     PISTON TEMPERATURE IS 310 K
Info:       PRESSURE CONTROL IS GROUP-BASED
Info:    INITIAL STRAIN RATE IS 2.20817e-05 2.20817e-05 1.49872e-06
Info:       CELL FLUCTUATION IS ANISOTROPIC
Info:     SHAPE OF CELL IS CONSTRAINED IN X-Y PLANE
Info: PARTICLE MESH EWALD (PME) ACTIVE
Info: PME TOLERANCE               1e-06
Info: PME EWALD COEFFICIENT       0.257952
Info: PME INTERPOLATION ORDER     4
Info: PME GRID DIMENSIONS         144 144 120
Info: PME MAXIMUM GRID SPACING    1
Info: FULL ELECTROSTATIC EVALUATION FREQUENCY      4
Info: USING VERLET I (r-RESPA) MTS SCHEME.
Info: C1 SPLITTING OF LONG RANGE ELECTROSTATICS
Info: PLACING ATOMS IN PATCHES BY HYDROGEN GROUPS
Info: RIGID BONDS TO HYDROGEN : ALL
Info:         ERROR TOLERANCE : 1e-08
Info:          MAX ITERATIONS : 100
Info: RIGID WATER USING SETTLE ALGORITHM
Info: NONBONDED FORCES EVALUATED EVERY 2 STEPS
Info: RANDOM NUMBER SEED     1406862742
Info: USE HYDROGEN BONDS?    NO
Info: COORDINATE PDB         ../phase2a/dat_equil_phase2a6.coor
Info: STRUCTURE FILE         ../common/ionized.psf
Info: PARAMETER file: CHARMM format!
Info: PARAMETERS             ../common/parameters_all.prm
Info: USING ARITHMETIC MEAN TO COMBINE L-J SIGMA PARAMETERS
Info: BINARY COORDINATES     ../phase2a/dat_equil_phase2a6.restart.coor
Info: SUMMARY OF PARAMETERS:
Info: 231 BONDS
Info: 615 ANGLES
Info: 936 DIHEDRAL
Info: 55 IMPROPER
Info: 6 CROSSTERM
Info: 152 VDW
Info: 0 VDW_PAIRS
Info: 0 NBTHOLE_PAIRS
Info: STRUCTURE SUMMARY:
Info: 231985 ATOMS
Info: 185243 BONDS
Info: 223663 ANGLES
Info: 247349 DIHEDRALS
Info: 2563 IMPROPERS
Info: 0 CROSSTERMS
Info: 0 EXCLUSIONS
Info: 2061 CONSTRAINTS
Info: 194058 RIGID BONDS
Info: 501897 DEGREES OF FREEDOM
Info: 83965 HYDROGEN GROUPS
Info: 4 ATOMS IN LARGEST HYDROGEN GROUP
Info: 83965 MIGRATION GROUPS
Info: 4 ATOMS IN LARGEST MIGRATION GROUP
Info: TOTAL MASS = 1.38414e+06 amu
Info: TOTAL CHARGE = -0.999934 e
Info: MASS DENSITY = 0.996674 g/cm^3
Info: ATOM DENSITY = 0.100594 atoms/A^3
Info: REMOVING COM VELOCITY 0.0219311 -0.0222027 0.0144483
Info: NONBONDED TABLE R-SQUARED SPACING: 0.0625
Info: NONBONDED TABLE SIZE: 769 POINTS
TCL: Minimizing for 2500 steps
ETITLE: TS BOND ANGLE DIHED IMPRP ELECT VDW BOUNDARY MISC KINETIC TOTAL TEMP POTENTIAL TOTAL3 TEMPAVG PRESSURE GPRESSURE VOLUME PRESSAVG GPRESSAVG
ENERGY: 0 10719.2480 55057.4616 38242.6342 680.6261 -588364.0438 16187.3920 340.6410 0.0000 0.0000 -467136.0409 0.0000 -467136.0409 -467136.0409 0.0000 11512.7090 -1696.3770 2306149.6051 11512.7090 -1696.3770
ENERGY: 500 21399.5790 25419.7114 31924.1843 94.4664 -775968.5486 31086.9436 237.1768 0.0000 0.0000 -665806.4872 0.0000 -665806.4872 -665806.4872 0.0000 -5481.1495 -5561.3323 2306149.6051 -5481.1495 -5561.3323
ENERGY: 1000 22901.5550 26024.9521 31245.8803 87.9027 -802453.6410 43437.5767 220.2310 0.0000 0.0000 -678535.5433 0.0000 -678535.5433 -678535.5433 0.0000 -4559.8996 -4533.7447 2306149.6051 -4559.8996 -4533.7447
ENERGY: 1500 23234.1655 26094.3150 31107.8508 88.1267 -809304.1767 45935.0668 214.7048 0.0000 0.0000 -682629.9472 0.0000 -682629.9472 -682629.9472 0.0000 -4355.5237 -4365.4670 2306149.6051 -4355.5237 -4365.4670
ENERGY: 2000 23381.4802 26218.5704 31046.2093 86.9822 -813361.7790 47823.4432 213.6059 0.0000 0.0000 -684591.4877 0.0000 -684591.4877 -684591.4877 0.0000 -4142.3078 -4142.9669 2306149.6051 -4142.3078 -4142.9669
ENERGY: 2500 23497.0692 26200.6337 31020.3281 86.7802 -815835.3868 48941.9258 212.6418 0.0000 0.0000 -685876.0080 0.0000 -685876.0080 -685876.0080 0.0000 -4010.8051 -4001.1114 2306149.6051 -4010.8051 -4001.1114
TCL: Running for 500000 steps
ETITLE: TS BOND ANGLE DIHED IMPRP ELECT VDW BOUNDARY MISC KINETIC TOTAL TEMP POTENTIAL TOTAL3 TEMPAVG PRESSURE GPRESSURE VOLUME PRESSAVG GPRESSAVG
ENERGY: 5000 10875.9199 54498.9473 38080.4820 592.5293 -598311.5562 18202.1601 325.1733 0.0000 150025.9585 -325710.3858 300.8446 -475736.3443 -325327.5570 266.3676 -13368.5248 -63.5762 2300229.2953 -1.7128 3.5854
ENERGY: 105000 10854.8233 55212.9529 38231.8612 648.8904 -588897.8842 15070.3339 293.3843 0.0000 154404.5060 -314181.1322 309.6248 -468585.6381 -313811.8616 309.6313 -13085.8065 170.1369 2257371.9233 -1.8499 -1.8526
ENERGY: 205000 10747.7929 55410.3942 37984.5028 659.0303 -588834.7959 14549.7280 284.2886 0.0000 154779.1817 -314419.8774 310.3761 -469199.0591 -314028.5035 309.7705 -13143.8480 114.0543 2257167.6397 5.1401 5.0421
ENERGY: 300000 10946.7651 55408.1583 37905.1658 645.1523 -588865.4276 14668.6568 294.5449 0.0000 154138.2111 -314858.7733 309.0908 -468996.9844 -314429.8747 309.8811 -13328.8012 -86.8137 2261009.3437 -1.0723 -1.0681
ENERGY: 400000 10881.7057 55394.1679 38034.0774 643.6918 -588909.3752 14655.5276 265.7892 0.0000 154130.0120 -314904.4036 309.0744 -469034.4156 -314511.4854 309.8351 -13265.6523 16.4229 2254585.4190 6.2772 6.2518
ENERGY: 500000 10592.5392 55350.5590 38070.5125 654.0564 -587944.7239 14152.6412 281.1241 0.0000 153891.8108 -314951.4805 308.5967 -468843.2914 -314561.1157 310.1999 -13262.2593 -0.8630 2254489.7035 4.0213 4.0034
