Info: SIMULATION PARAMETERS:
Info: TIMESTEP               2
Info: NUMBER OF STEPS        0
Info: STEPS PER CYCLE        12
Info: PERIODIC CELL BASIS 1  146.705 0 0
Info: PERIODIC CELL BASIS 2  0 148.506 0
Info: PERIODIC CELL BASIS 3  0 0 114.643
Info: PERIODIC CELL CENTER   39.757 40.344 2.181
Info: WRAPPING ALL CLUSTERS AROUND PERIODIC BOUNDARIES ON OUTPUT.
Info: FIRST LDB TIMESTEP     60
Info: LAST LDB TIMESTEP     -1
Info: HOM BACKGROUND SCALING 1
Info: PME BACKGROUND SCALING 1
Info: REMOVING PATCHES FROM PROCESSOR 0
Info: MIN ATOMS PER PATCH    40
Info: VELOCITY FILE          ../phase2b/dat_phase2b3.vel
Info: CENTER OF MASS MOVING INITIALLY? NO
Info: DIELECTRIC             1
Info: EXCLUDE                SCALED ONE-FOUR
Info: 1-4 ELECTROSTATICS SCALED BY 1
Info: MODIFIED 1-4 VDW PARAMETERS WILL BE USED
Info: DCD FILENAME           ./dat_phase3_04.dcd
Info: DCD FREQUENCY          10000
Info: DCD FIRST STEP         10000
Info: DCD FILE WILL CONTAIN UNIT CELL DATA
Info: XST FILENAME           ./dat_phase3_04.xst
Info: XST FREQUENCY          10000
Info: NO VELOCITY DCD OUTPUT
Info: NO FORCE DCD OUTPUT
Info: OUTPUT FILENAME        ./dat_phase3_04
Info: RESTART FILENAME       ./dat_phase3_04.restart
Info: RESTART FREQUENCY      10000
Info: BINARY RESTART FILES WILL BE USED
Info: SWITCHING ACTIVE
Info: SWITCHING ON           10
Info: SWITCHING OFF          12
Info: PAIRLIST DISTANCE      13.5
Info: PAIRLIST SHRINK RATE   0.01
Info: PAIRLIST GROW RATE     0.01
Info: PAIRLIST TRIGGER       0.3
Info: PAIRLISTS PER CYCLE    2
Info: PAIRLISTS ENABLED
Info: MARGIN                 1.5
Info: HYDROGEN GROUP CUTOFF  2.5
Info: PATCH DIMENSION        17.5
Info: ENERGY OUTPUT STEPS    30000
Info: CROSSTERM ENERGY INCLUDED IN DIHEDRAL
Info: TIMING OUTPUT STEPS    10000
Info: PRESSURE OUTPUT STEPS  10000
Info: LANGEVIN DYNAMICS ACTIVE
Info: LANGEVIN TEMPERATURE   310
Info: LANGEVIN DAMPING COEFFICIENT IS 5 INVERSE PS
Info: LANGEVIN DYNAMICS NOT APPLIED TO HYDROGENS
Info: LANGEVIN PISTON PRESSURE CONTROL ACTIVE
Info:        TARGET PRESSURE IS 1.01325 BAR
Info:     OSCILLATION PERIOD IS 200 FS
Info:             DECAY TIME IS 50 FS
Info:     PISTON TEMPERATURE IS 310 K
Info:       PRESSURE CONTROL IS GROUP-BASED
Info:    INITIAL STRAIN RATE IS -4.5712e-06 -4.5712e-06 1.16676e-05
Info:       CELL FLUCTUATION IS ANISOTROPIC
Info:     SHAPE OF CELL IS CONSTRAINED IN X-Y PLANE
Info: PARTICLE MESH EWALD (PME) ACTIVE
Info: PME TOLERANCE               1e-06
Info: PME EWALD COEFFICIENT       0.257952
Info: PME INTERPOLATION ORDER     4
Info: PME GRID DIMENSIONS         160 160 120
Info: PME MAXIMUM GRID SPACING    1
Info: FULL ELECTROSTATIC EVALUATION FREQUENCY      3
Info: USING VERLET I (r-RESPA) MTS SCHEME.
Info: C1 SPLITTING OF LONG RANGE ELECTROSTATICS
Info: PLACING ATOMS IN PATCHES BY HYDROGEN GROUPS
Info: RIGID BONDS TO HYDROGEN : ALL
Info:         ERROR TOLERANCE : 1e-08
Info:          MAX ITERATIONS : 100
Info: RIGID WATER USING SETTLE ALGORITHM
Info: RANDOM NUMBER SEED     1405187750
Info: USE HYDROGEN BONDS?    NO
Info: COORDINATE PDB         ../phase2b/dat_phase2b3.coor
Info: STRUCTURE FILE         ../common/ionized.psf
Info: PARAMETER file: CHARMM format!
Info: PARAMETERS             ../common/parameters_all.prm
Info: USING ARITHMETIC MEAN TO COMBINE L-J SIGMA PARAMETERS
Info: BINARY COORDINATES     ../phase3/dat_phase3_03.restart.coor
Info: SUMMARY OF PARAMETERS:
Info: 231 BONDS
Info: 615 ANGLES
Info: 936 DIHEDRAL
Info: 55 IMPROPER
Info: 6 CROSSTERM
Info: 152 VDW
Info: 0 VDW_PAIRS
Info: 0 NBTHOLE_PAIRS
Info: STRUCTURE SUMMARY:
Info: 256039 ATOMS
Info: 201645 BONDS
Info: 233451 ANGLES
Info: 250328 DIHEDRALS
Info: 2581 IMPROPERS
Info: 0 CROSSTERMS
Info: 0 EXCLUSIONS
Info: 217662 RIGID BONDS
Info: 550455 DEGREES OF FREEDOM
Info: 92055 HYDROGEN GROUPS
Info: 4 ATOMS IN LARGEST HYDROGEN GROUP
Info: 92055 MIGRATION GROUPS
Info: 4 ATOMS IN LARGEST MIGRATION GROUP
Info: TOTAL MASS = 1.5284e+06 amu
Info: TOTAL CHARGE = -0.999933 e
Info: MASS DENSITY = 1.01616 g/cm^3
Info: ATOM DENSITY = 0.102511 atoms/A^3
Info: REMOVING COM VELOCITY -0.00698185 -0.000353563 -0.0209095
Info: NONBONDED TABLE R-SQUARED SPACING: 0.0625
Info: NONBONDED TABLE SIZE: 769 POINTS
TCL: Running for 10200000 steps
ETITLE: TS BOND ANGLE DIHED IMPRP ELECT VDW BOUNDARY MISC KINETIC TOTAL TEMP POTENTIAL TOTAL3 TEMPAVG PRESSURE GPRESSURE VOLUME PRESSAVG GPRESSAVG
ENERGY: 0 11202.1049 57250.2186 38414.3397 709.9418 -672143.3030 22542.5944 0.0000 0.0000 134128.7704 -407895.3333 245.2395 -542024.1036 -406853.8959 245.2395 57.2226 88.4360 2497678.0575 57.2226 88.4360
ENERGY: 660000 11329.2802 57398.7332 38344.5169 685.8999 -671857.8402 22281.3171 0.0000 0.0000 169304.0635 -372514.0294 309.5537 -541818.0930 -371472.8691 309.3268 5.8714 44.3212 2495378.6228 1.4356 1.4315
ENERGY: 1320000 11387.1862 57263.8062 38342.9131 641.6010 -671854.4386 22232.4279 0.0000 0.0000 169500.7195 -372485.7848 309.9132 -541986.5043 -371413.2922 309.2829 -151.4638 -116.1111 2501310.9159 0.6851 0.6830
ENERGY: 2010000 11384.4005 57345.9299 38549.7951 662.3142 -671718.0931 21882.9414 0.0000 0.0000 169377.1420 -372515.5699 309.6873 -541892.7120 -371461.5935 309.1541 -115.8543 -77.8319 2494512.7776 1.4620 1.4791
ENERGY: 2670000 11383.0048 57318.4816 38300.8736 679.5649 -671624.0193 21844.2880 0.0000 0.0000 169235.7231 -372862.0833 309.4287 -542097.8063 -371809.2172 309.2396 -73.5104 -35.8939 2496274.8488 1.2383 1.2299
ENERGY: 3330000 11276.0025 57359.8158 38404.7179 659.3668 -671752.1474 21965.3077 0.0000 0.0000 168680.9277 -373406.0090 308.4143 -542086.9367 -372351.7368 309.3412 -21.4167 20.8481 2495764.9916 -0.2640 -0.2474
