Info: SIMULATION PARAMETERS:
Info: TIMESTEP               2
Info: NUMBER OF STEPS        0
Info: STEPS PER CYCLE        12
Info: PERIODIC CELL BASIS 1  145.542 0 0
Info: PERIODIC CELL BASIS 2  0 147.33 0
Info: PERIODIC CELL BASIS 3  0 0 116.476
Info: PERIODIC CELL CENTER   39.757 40.344 2.181
Info: WRAPPING ALL CLUSTERS AROUND PERIODIC BOUNDARIES ON OUTPUT.
Info: FIRST LDB TIMESTEP     60
Info: LAST LDB TIMESTEP     -1
Info: HOM BACKGROUND SCALING 1
Info: PME BACKGROUND SCALING 1
Info: REMOVING PATCHES FROM PROCESSOR 0
Info: MIN ATOMS PER PATCH    40
Info: VELOCITY FILE          ../phase2b/dat_phase2b3.vel
Info: CENTER OF MASS MOVING INITIALLY? NO
Info: DIELECTRIC             1
Info: EXCLUDE                SCALED ONE-FOUR
Info: 1-4 ELECTROSTATICS SCALED BY 1
Info: MODIFIED 1-4 VDW PARAMETERS WILL BE USED
Info: DCD FILENAME           ./dat_phase3_09.dcd
Info: DCD FREQUENCY          10000
Info: DCD FIRST STEP         10000
Info: DCD FILE WILL CONTAIN UNIT CELL DATA
Info: XST FILENAME           ./dat_phase3_09.xst
Info: XST FREQUENCY          10000
Info: NO VELOCITY DCD OUTPUT
Info: NO FORCE DCD OUTPUT
Info: OUTPUT FILENAME        ./dat_phase3_09
Info: RESTART FILENAME       ./dat_phase3_09.restart
Info: RESTART FREQUENCY      10000
Info: BINARY RESTART FILES WILL BE USED
Info: SWITCHING ACTIVE
Info: SWITCHING ON           10
Info: SWITCHING OFF          12
Info: PAIRLIST DISTANCE      13.5
Info: PAIRLIST SHRINK RATE   0.01
Info: PAIRLIST GROW RATE     0.01
Info: PAIRLIST TRIGGER       0.3
Info: PAIRLISTS PER CYCLE    2
Info: PAIRLISTS ENABLED
Info: MARGIN                 1.5
Info: HYDROGEN GROUP CUTOFF  2.5
Info: PATCH DIMENSION        17.5
Info: ENERGY OUTPUT STEPS    30000
Info: CROSSTERM ENERGY INCLUDED IN DIHEDRAL
Info: TIMING OUTPUT STEPS    10000
Info: PRESSURE OUTPUT STEPS  10000
Info: LANGEVIN DYNAMICS ACTIVE
Info: LANGEVIN TEMPERATURE   310
Info: LANGEVIN DAMPING COEFFICIENT IS 5 INVERSE PS
Info: LANGEVIN DYNAMICS NOT APPLIED TO HYDROGENS
Info: LANGEVIN PISTON PRESSURE CONTROL ACTIVE
Info:        TARGET PRESSURE IS 1.01325 BAR
Info:     OSCILLATION PERIOD IS 200 FS
Info:             DECAY TIME IS 50 FS
Info:     PISTON TEMPERATURE IS 310 K
Info:       PRESSURE CONTROL IS GROUP-BASED
Info:    INITIAL STRAIN RATE IS 8.00354e-06 8.00354e-06 8.07794e-06
Info:       CELL FLUCTUATION IS ANISOTROPIC
Info:     SHAPE OF CELL IS CONSTRAINED IN X-Y PLANE
Info: PARTICLE MESH EWALD (PME) ACTIVE
Info: PME TOLERANCE               1e-06
Info: PME EWALD COEFFICIENT       0.257952
Info: PME INTERPOLATION ORDER     4
Info: PME GRID DIMENSIONS         160 160 120
Info: PME MAXIMUM GRID SPACING    1
Info: FULL ELECTROSTATIC EVALUATION FREQUENCY      3
Info: USING VERLET I (r-RESPA) MTS SCHEME.
Info: C1 SPLITTING OF LONG RANGE ELECTROSTATICS
Info: PLACING ATOMS IN PATCHES BY HYDROGEN GROUPS
Info: RIGID BONDS TO HYDROGEN : ALL
Info:         ERROR TOLERANCE : 1e-08
Info:          MAX ITERATIONS : 100
Info: RIGID WATER USING SETTLE ALGORITHM
Info: RANDOM NUMBER SEED     1406463442
Info: USE HYDROGEN BONDS?    NO
Info: COORDINATE PDB         ../phase2b/dat_phase2b3.coor
Info: STRUCTURE FILE         ../common/ionized.psf
Info: PARAMETER file: CHARMM format!
Info: PARAMETERS             ../common/parameters_all.prm
Info: USING ARITHMETIC MEAN TO COMBINE L-J SIGMA PARAMETERS
Info: BINARY COORDINATES     ../phase3/dat_phase3_08.restart.coor
Info: SUMMARY OF PARAMETERS:
Info: 231 BONDS
Info: 615 ANGLES
Info: 936 DIHEDRAL
Info: 55 IMPROPER
Info: 6 CROSSTERM
Info: 152 VDW
Info: 0 VDW_PAIRS
Info: 0 NBTHOLE_PAIRS
Info: STRUCTURE SUMMARY:
Info: 256039 ATOMS
Info: 201645 BONDS
Info: 233451 ANGLES
Info: 250328 DIHEDRALS
Info: 2581 IMPROPERS
Info: 0 CROSSTERMS
Info: 0 EXCLUSIONS
Info: 217662 RIGID BONDS
Info: 550455 DEGREES OF FREEDOM
Info: 92055 HYDROGEN GROUPS
Info: 4 ATOMS IN LARGEST HYDROGEN GROUP
Info: 92055 MIGRATION GROUPS
Info: 4 ATOMS IN LARGEST MIGRATION GROUP
Info: TOTAL MASS = 1.5284e+06 amu
Info: TOTAL CHARGE = -0.999933 e
Info: MASS DENSITY = 1.0162 g/cm^3
Info: ATOM DENSITY = 0.102516 atoms/A^3
Info: REMOVING COM VELOCITY -0.00698185 -0.000353563 -0.0209095
Info: NONBONDED TABLE R-SQUARED SPACING: 0.0625
Info: NONBONDED TABLE SIZE: 769 POINTS
TCL: Running for 10200000 steps
ETITLE: TS BOND ANGLE DIHED IMPRP ELECT VDW BOUNDARY MISC KINETIC TOTAL TEMP POTENTIAL TOTAL3 TEMPAVG PRESSURE GPRESSURE VOLUME PRESSAVG GPRESSAVG
ENERGY: 0 11296.7783 57347.2096 38421.1590 668.1783 -671730.1015 22058.2511 0.0000 0.0000 133992.3918 -407946.1334 244.9902 -541938.5252 -406901.2331 244.9902 -114.1479 -76.0236 2497560.2583 -114.1479 -76.0236
ENERGY: 660000 11240.8278 57372.4948 38445.6325 661.5732 -671891.9690 22135.2665 0.0000 0.0000 169309.0095 -372727.1648 309.5627 -542036.1743 -371649.7311 309.2991 -77.0409 -39.3695 2496865.2384 0.4105 0.3896
ENERGY: 1320000 11260.8966 57406.0506 38449.7899 669.8178 -671246.8204 22240.6012 0.0000 0.0000 169138.3179 -372081.3464 309.2506 -541219.6643 -371022.0009 309.3386 64.2267 101.4773 2496790.5592 1.8684 1.8704
ENERGY: 1980000 11202.4942 57174.0443 38373.3303 650.2754 -671881.3071 22320.5566 0.0000 0.0000 169175.7459 -372984.8604 309.3190 -542160.6063 -371926.2943 309.3071 -67.8005 -29.0583 2500162.7322 1.4219 1.4152
ENERGY: 2640000 11327.4157 57049.4622 38495.5122 635.4851 -671940.4043 22390.4232 0.0000 0.0000 169138.8249 -372903.2809 309.2515 -542042.1058 -371833.2539 309.3708 14.6590 51.3921 2499867.6732 -0.1394 -0.1580
ENERGY: 3300000 11329.0749 57397.3655 38288.4923 711.5349 -672586.5412 22514.7362 0.0000 0.0000 169657.8516 -372687.4859 310.2005 -542345.3375 -371604.9969 309.2636 -34.6626 1.2904 2498531.8244 1.0160 1.0149
