Info: SIMULATION PARAMETERS:
Info: TIMESTEP               2
Info: NUMBER OF STEPS        0
Info: STEPS PER CYCLE        12
Info: PERIODIC CELL BASIS 1  146.336 0 0
Info: PERIODIC CELL BASIS 2  0 148.133 0
Info: PERIODIC CELL BASIS 3  0 0 115.056
Info: PERIODIC CELL CENTER   39.757 40.344 2.181
Info: WRAPPING ALL CLUSTERS AROUND PERIODIC BOUNDARIES ON OUTPUT.
Info: FIRST LDB TIMESTEP     60
Info: LAST LDB TIMESTEP     -1
Info: HOM BACKGROUND SCALING 1
Info: PME BACKGROUND SCALING 1
Info: REMOVING PATCHES FROM PROCESSOR 0
Info: MIN ATOMS PER PATCH    40
Info: VELOCITY FILE          ../phase2b/dat_phase2b3.vel
Info: CENTER OF MASS MOVING INITIALLY? NO
Info: DIELECTRIC             1
Info: EXCLUDE                SCALED ONE-FOUR
Info: 1-4 ELECTROSTATICS SCALED BY 1
Info: MODIFIED 1-4 VDW PARAMETERS WILL BE USED
Info: DCD FILENAME           ./dat_phase3_03.dcd
Info: DCD FREQUENCY          10000
Info: DCD FIRST STEP         10000
Info: DCD FILE WILL CONTAIN UNIT CELL DATA
Info: XST FILENAME           ./dat_phase3_03.xst
Info: XST FREQUENCY          10000
Info: NO VELOCITY DCD OUTPUT
Info: NO FORCE DCD OUTPUT
Info: OUTPUT FILENAME        ./dat_phase3_03
Info: RESTART FILENAME       ./dat_phase3_03.restart
Info: RESTART FREQUENCY      10000
Info: BINARY RESTART FILES WILL BE USED
Info: SWITCHING ACTIVE
Info: SWITCHING ON           10
Info: SWITCHING OFF          12
Info: PAIRLIST DISTANCE      13.5
Info: PAIRLIST SHRINK RATE   0.01
Info: PAIRLIST GROW RATE     0.01
Info: PAIRLIST TRIGGER       0.3
Info: PAIRLISTS PER CYCLE    2
Info: PAIRLISTS ENABLED
Info: MARGIN                 1.5
Info: HYDROGEN GROUP CUTOFF  2.5
Info: PATCH DIMENSION        17.5
Info: ENERGY OUTPUT STEPS    30000
Info: CROSSTERM ENERGY INCLUDED IN DIHEDRAL
Info: TIMING OUTPUT STEPS    10000
Info: PRESSURE OUTPUT STEPS  10000
Info: LANGEVIN DYNAMICS ACTIVE
Info: LANGEVIN TEMPERATURE   310
Info: LANGEVIN DAMPING COEFFICIENT IS 5 INVERSE PS
Info: LANGEVIN DYNAMICS NOT APPLIED TO HYDROGENS
Info: LANGEVIN PISTON PRESSURE CONTROL ACTIVE
Info:        TARGET PRESSURE IS 1.01325 BAR
Info:     OSCILLATION PERIOD IS 200 FS
Info:             DECAY TIME IS 50 FS
Info:     PISTON TEMPERATURE IS 310 K
Info:       PRESSURE CONTROL IS GROUP-BASED
Info:    INITIAL STRAIN RATE IS -2.63175e-05 -2.63175e-05 -4.50613e-07
Info:       CELL FLUCTUATION IS ANISOTROPIC
Info:     SHAPE OF CELL IS CONSTRAINED IN X-Y PLANE
Info: PARTICLE MESH EWALD (PME) ACTIVE
Info: PME TOLERANCE               1e-06
Info: PME EWALD COEFFICIENT       0.257952
Info: PME INTERPOLATION ORDER     4
Info: PME GRID DIMENSIONS         160 160 120
Info: PME MAXIMUM GRID SPACING    1
Info: FULL ELECTROSTATIC EVALUATION FREQUENCY      3
Info: USING VERLET I (r-RESPA) MTS SCHEME.
Info: C1 SPLITTING OF LONG RANGE ELECTROSTATICS
Info: PLACING ATOMS IN PATCHES BY HYDROGEN GROUPS
Info: RIGID BONDS TO HYDROGEN : ALL
Info:         ERROR TOLERANCE : 1e-08
Info:          MAX ITERATIONS : 100
Info: RIGID WATER USING SETTLE ALGORITHM
Info: RANDOM NUMBER SEED     1404969950
Info: USE HYDROGEN BONDS?    NO
Info: COORDINATE PDB         ../phase2b/dat_phase2b3.coor
Info: STRUCTURE FILE         ../common/ionized.psf
Info: PARAMETER file: CHARMM format!
Info: PARAMETERS             ../common/parameters_all.prm
Info: USING ARITHMETIC MEAN TO COMBINE L-J SIGMA PARAMETERS
Info: BINARY COORDINATES     ../phase3/dat_phase3_02.restart.coor
Info: SUMMARY OF PARAMETERS:
Info: 231 BONDS
Info: 615 ANGLES
Info: 936 DIHEDRAL
Info: 55 IMPROPER
Info: 6 CROSSTERM
Info: 152 VDW
Info: 0 VDW_PAIRS
Info: 0 NBTHOLE_PAIRS
Info: STRUCTURE SUMMARY:
Info: 256039 ATOMS
Info: 201645 BONDS
Info: 233451 ANGLES
Info: 250328 DIHEDRALS
Info: 2581 IMPROPERS
Info: 0 CROSSTERMS
Info: 0 EXCLUSIONS
Info: 217662 RIGID BONDS
Info: 550455 DEGREES OF FREEDOM
Info: 92055 HYDROGEN GROUPS
Info: 4 ATOMS IN LARGEST HYDROGEN GROUP
Info: 92055 MIGRATION GROUPS
Info: 4 ATOMS IN LARGEST MIGRATION GROUP
Info: TOTAL MASS = 1.5284e+06 amu
Info: TOTAL CHARGE = -0.999933 e
Info: MASS DENSITY = 1.01762 g/cm^3
Info: ATOM DENSITY = 0.102658 atoms/A^3
Info: REMOVING COM VELOCITY -0.00698185 -0.000353563 -0.0209095
Info: NONBONDED TABLE R-SQUARED SPACING: 0.0625
Info: NONBONDED TABLE SIZE: 769 POINTS
TCL: Running for 10200000 steps
ETITLE: TS BOND ANGLE DIHED IMPRP ELECT VDW BOUNDARY MISC KINETIC TOTAL TEMP POTENTIAL TOTAL3 TEMPAVG PRESSURE GPRESSURE VOLUME PRESSAVG GPRESSAVG
ENERGY: 0 11379.3905 57311.1847 38229.1980 646.8847 -671094.7267 21489.8601 0.0000 0.0000 134112.0772 -407926.1315 245.2090 -542038.2087 -406880.6416 245.2090 -86.1681 -51.6980 2494090.8518 -86.1681 -51.6980
ENERGY: 660000 11329.5317 57086.5931 38357.8719 678.6145 -671688.3766 22120.0937 0.0000 0.0000 168806.6656 -373309.0061 308.6442 -542115.6718 -372268.5454 309.3096 15.3914 48.7321 2497928.6072 1.5638 1.5658
ENERGY: 1320000 11257.9872 57107.1654 38466.8974 646.3630 -672125.6618 22182.5108 0.0000 0.0000 169404.8790 -373059.8590 309.7380 -542464.7380 -372006.0468 309.3799 -46.6069 -9.5643 2494372.9925 0.5063 0.4966
ENERGY: 2010000 11315.4589 57022.0290 38536.5098 670.6927 -672275.9070 22109.1348 0.0000 0.0000 169208.2003 -373413.8815 309.3784 -542622.0818 -372288.7109 309.4250 -101.9071 -63.4111 2495514.7940 0.8894 0.8995
ENERGY: 2670000 11228.2332 57298.2410 38460.4696 649.2718 -671131.3846 21933.4517 0.0000 0.0000 169429.7567 -372131.9606 309.7835 -541561.7173 -371058.5636 309.3692 -7.3135 34.4016 2498409.3088 0.2434 0.2399
ENERGY: 3330000 11202.1049 57250.2186 38414.3397 709.9418 -672147.9260 22547.0276 0.0000 0.0000 169474.3586 -372549.9347 309.8650 -542024.2934 -371524.6520 309.3475 52.5135 87.8953 2497665.4324 1.6208 1.6303
