Info: SIMULATION PARAMETERS:
Info: TIMESTEP               1
Info: NUMBER OF STEPS        0
Info: STEPS PER CYCLE        20
Info: PERIODIC CELL BASIS 1  128.301 0 0
Info: PERIODIC CELL BASIS 2  0 129.45 0
Info: PERIODIC CELL BASIS 3  0 0 100.478
Info: PERIODIC CELL CENTER   -0.436 0.199 0.879
Info: WRAPPING ALL CLUSTERS AROUND PERIODIC BOUNDARIES ON OUTPUT.
Info: FIRST LDB TIMESTEP     100
Info: LAST LDB TIMESTEP     -1
Info: HOM BACKGROUND SCALING 1
Info: PME BACKGROUND SCALING 1
Info: REMOVING PATCHES FROM PROCESSOR 0
Info: MIN ATOMS PER PATCH    40
Info: VELOCITY FILE          ../phase1c/dat_phase1c.vel
Info: CENTER OF MASS MOVING INITIALLY? NO
Info: DIELECTRIC             1
Info: EXCLUDE                SCALED ONE-FOUR
Info: 1-4 ELECTROSTATICS SCALED BY 1
Info: MODIFIED 1-4 VDW PARAMETERS WILL BE USED
Info: DCD FILENAME           ./dat_equil_phase2a1.np.dcd
Info: DCD FREQUENCY          5000
Info: DCD FIRST STEP         5000
Info: DCD FILE WILL CONTAIN UNIT CELL DATA
Info: XST FILENAME           ./dat_equil_phase2a1.np.xst
Info: XST FREQUENCY          5000
Info: NO VELOCITY DCD OUTPUT
Info: NO FORCE DCD OUTPUT
Info: OUTPUT FILENAME        ./dat_equil_phase2a1.np
Info: RESTART FILENAME       ./dat_equil_phase2a1.np.restart
Info: RESTART FREQUENCY      5000
Info: BINARY RESTART FILES WILL BE USED
Info: SWITCHING ACTIVE
Info: SWITCHING ON           10
Info: SWITCHING OFF          12
Info: PAIRLIST DISTANCE      13.5
Info: PAIRLIST SHRINK RATE   0.01
Info: PAIRLIST GROW RATE     0.01
Info: PAIRLIST TRIGGER       0.3
Info: PAIRLISTS PER CYCLE    2
Info: PAIRLISTS ENABLED
Info: MARGIN                 1.5
Info: HYDROGEN GROUP CUTOFF  2.5
Info: PATCH DIMENSION        17.5
Info: ENERGY OUTPUT STEPS    5000
Info: CROSSTERM ENERGY INCLUDED IN DIHEDRAL
Info: TIMING OUTPUT STEPS    5000
Info: PRESSURE OUTPUT STEPS  5000
Info: HARMONIC CONSTRAINTS ACTIVE
Info: HARMONIC CONS EXP      2
Info: LANGEVIN DYNAMICS ACTIVE
Info: LANGEVIN TEMPERATURE   310
Info: LANGEVIN DAMPING COEFFICIENT IS 5 INVERSE PS
Info: LANGEVIN DYNAMICS NOT APPLIED TO HYDROGENS
Info: LANGEVIN PISTON PRESSURE CONTROL ACTIVE
Info:        TARGET PRESSURE IS 1.01325 BAR
Info:     OSCILLATION PERIOD IS 200 FS
Info:             DECAY TIME IS 50 FS
Info:     PISTON TEMPERATURE IS 310 K
Info:       PRESSURE CONTROL IS GROUP-BASED
Info:    INITIAL STRAIN RATE IS -1.77465e-05 -1.77465e-05 1.14658e-05
Info:       CELL FLUCTUATION IS ANISOTROPIC
Info:     SHAPE OF CELL IS CONSTRAINED IN X-Y PLANE
Info: PARTICLE MESH EWALD (PME) ACTIVE
Info: PME TOLERANCE               1e-06
Info: PME EWALD COEFFICIENT       0.257952
Info: PME INTERPOLATION ORDER     4
Info: PME GRID DIMENSIONS         132 132 108
Info: PME MAXIMUM GRID SPACING    1
Info: FULL ELECTROSTATIC EVALUATION FREQUENCY      4
Info: USING VERLET I (r-RESPA) MTS SCHEME.
Info: C1 SPLITTING OF LONG RANGE ELECTROSTATICS
Info: PLACING ATOMS IN PATCHES BY HYDROGEN GROUPS
Info: RIGID BONDS TO HYDROGEN : ALL
Info:         ERROR TOLERANCE : 1e-08
Info:          MAX ITERATIONS : 100
Info: RIGID WATER USING SETTLE ALGORITHM
Info: NONBONDED FORCES EVALUATED EVERY 2 STEPS
Info: RANDOM NUMBER SEED     1406384197
Info: USE HYDROGEN BONDS?    NO
Info: COORDINATE PDB         ../phase1c/dat_phase1c.coor
Info: STRUCTURE FILE         ../common/ionized.psf
Info: PARAMETER file: CHARMM format!
Info: PARAMETERS             ../common/parameters_all.prm
Info: USING ARITHMETIC MEAN TO COMBINE L-J SIGMA PARAMETERS
Info: SUMMARY OF PARAMETERS:
Info: 231 BONDS
Info: 615 ANGLES
Info: 936 DIHEDRAL
Info: 55 IMPROPER
Info: 6 CROSSTERM
Info: 152 VDW
Info: 0 VDW_PAIRS
Info: 0 NBTHOLE_PAIRS
Info: STRUCTURE SUMMARY:
Info: 170482 ATOMS
Info: 136083 BONDS
Info: 163960 ANGLES
Info: 181135 DIHEDRALS
Info: 2060 IMPROPERS
Info: 0 CROSSTERMS
Info: 0 EXCLUSIONS
Info: 1845 CONSTRAINTS
Info: 142629 RIGID BONDS
Info: 368817 DEGREES OF FREEDOM
Info: 61764 HYDROGEN GROUPS
Info: 4 ATOMS IN LARGEST HYDROGEN GROUP
Info: 61764 MIGRATION GROUPS
Info: 4 ATOMS IN LARGEST MIGRATION GROUP
Info: TOTAL MASS = 1.01823e+06 amu
Info: TOTAL CHARGE = 4.80842e-05 e
Info: MASS DENSITY = 1.01321 g/cm^3
Info: ATOM DENSITY = 0.102159 atoms/A^3
Info: REMOVING COM VELOCITY -0.00914419 0.00987557 -0.0184928
Info: NONBONDED TABLE R-SQUARED SPACING: 0.0625
Info: NONBONDED TABLE SIZE: 769 POINTS
TCL: Minimizing for 2500 steps
ETITLE: TS BOND ANGLE DIHED IMPRP ELECT VDW BOUNDARY MISC KINETIC TOTAL TEMP POTENTIAL TOTAL3 TEMPAVG PRESSURE GPRESSURE VOLUME PRESSAVG GPRESSAVG
ENERGY: 0 7690.2405 39934.9885 28178.6053 379.4639 -431269.6774 12695.5304 0.0000 0.0000 0.0000 -342390.8487 0.0000 -342390.8487 -342390.8487 0.0000 12165.3553 -1220.9935 1668795.3388 12165.3553 -1220.9935
ENERGY: 500 16400.8816 19367.4218 23393.1540 69.2467 -576858.6945 26525.2013 191.9893 0.0000 0.0000 -490910.7998 0.0000 -490910.7998 -490910.7998 0.0000 -5228.1625 -5169.3228 1668795.3388 -5228.1625 -5169.3228
ENERGY: 1000 16951.1363 19235.5191 23035.0748 67.0609 -589303.9432 31271.4161 198.8997 0.0000 0.0000 -498544.8363 0.0000 -498544.8363 -498544.8363 0.0000 -4820.8293 -4809.9485 1668795.3388 -4820.8293 -4809.9485
ENERGY: 1500 17123.9191 19365.9613 22930.8658 66.0036 -593981.2639 33284.5634 203.7560 0.0000 0.0000 -501006.1947 0.0000 -501006.1947 -501006.1947 0.0000 -4615.1381 -4618.0241 1668795.3388 -4615.1381 -4618.0241
ENERGY: 2000 17252.9255 19411.6328 22864.5905 65.4904 -597091.8832 34798.9021 210.6451 0.0000 0.0000 -502487.6967 0.0000 -502487.6967 -502487.6967 0.0000 -4405.8181 -4421.4989 1668795.3388 -4405.8181 -4421.4989
ENERGY: 2500 17351.0887 19456.1204 22835.0034 65.0770 -598831.6421 35550.3763 212.7444 0.0000 0.0000 -503361.2319 0.0000 -503361.2319 -503361.2319 0.0000 -4337.9298 -4341.0535 1668795.3388 -4337.9298 -4341.0535
TCL: Running for 250000 steps
ETITLE: TS BOND ANGLE DIHED IMPRP ELECT VDW BOUNDARY MISC KINETIC TOTAL TEMP POTENTIAL TOTAL3 TEMPAVG PRESSURE GPRESSURE VOLUME PRESSAVG GPRESSAVG
ENERGY: 5000 7946.8426 39969.6540 28072.9486 525.0841 -439177.6354 13460.5013 330.9000 0.0000 109978.2395 -238893.4653 300.1140 -348871.7049 -238611.8073 266.6380 -13412.9349 103.2778 1665068.9671 1.3337 6.8453
ENERGY: 55000 8123.8391 40701.5230 27970.2105 546.7163 -431750.6158 11271.1299 383.2611 0.0000 113161.9186 -229592.0173 308.8018 -342753.9359 -229279.2920 310.0578 -13268.0302 -42.9772 1665122.3536 2.5329 2.4826
ENERGY: 105000 7988.7975 40576.8673 27868.2752 505.6116 -432676.0386 11436.8937 361.7363 0.0000 113227.0609 -230710.7960 308.9795 -343937.8570 -230404.6533 309.6167 -13244.5004 8.0084 1661817.6581 2.2080 2.1673
ENERGY: 150000 7991.2241 40605.9855 27852.1361 490.3211 -432438.4031 11293.3668 393.9129 0.0000 112969.5041 -230841.9525 308.2767 -343811.4566 -230560.2669 309.5447 -13302.4862 -34.0622 1661218.2398 3.4921 3.5272
ENERGY: 200000 8021.9852 40451.4217 27961.5576 513.6551 -432632.3512 11135.4895 383.4356 0.0000 113421.8190 -230742.9875 309.5110 -344164.8065 -230445.8014 309.4259 -13235.7439 4.4044 1662281.3915 0.6108 0.5364
ENERGY: 250000 8080.6295 40550.9983 27998.2412 507.4596 -432596.5044 11404.8237 371.0918 0.0000 112954.9854 -230728.2749 308.2371 -343683.2603 -230428.9956 309.8844 -13151.2628 99.1208 1662439.1831 -2.3892 -2.3316
