Info: SIMULATION PARAMETERS:
Info: TIMESTEP               1
Info: NUMBER OF STEPS        0
Info: STEPS PER CYCLE        20
Info: PERIODIC CELL BASIS 1  150.617 0 0
Info: PERIODIC CELL BASIS 2  0 152.466 0
Info: PERIODIC CELL BASIS 3  0 0 98.7423
Info: PERIODIC CELL CENTER   39.761 40.384 -1.088
Info: WRAPPING ALL CLUSTERS AROUND PERIODIC BOUNDARIES ON OUTPUT.
Info: FIRST LDB TIMESTEP     100
Info: LAST LDB TIMESTEP     -1
Info: HOM BACKGROUND SCALING 1
Info: PME BACKGROUND SCALING 1
Info: REMOVING PATCHES FROM PROCESSOR 0
Info: MIN ATOMS PER PATCH    40
Info: VELOCITY FILE          ../phase1c/dat_phase1c.vel
Info: CENTER OF MASS MOVING INITIALLY? NO
Info: DIELECTRIC             1
Info: EXCLUDE                SCALED ONE-FOUR
Info: 1-4 ELECTROSTATICS SCALED BY 1
Info: MODIFIED 1-4 VDW PARAMETERS WILL BE USED
Info: DCD FILENAME           ./dat_equil_phase2a1.np.dcd
Info: DCD FREQUENCY          5000
Info: DCD FIRST STEP         5000
Info: DCD FILE WILL CONTAIN UNIT CELL DATA
Info: XST FILENAME           ./dat_equil_phase2a1.np.xst
Info: XST FREQUENCY          5000
Info: NO VELOCITY DCD OUTPUT
Info: NO FORCE DCD OUTPUT
Info: OUTPUT FILENAME        ./dat_equil_phase2a1.np
Info: RESTART FILENAME       ./dat_equil_phase2a1.np.restart
Info: RESTART FREQUENCY      5000
Info: BINARY RESTART FILES WILL BE USED
Info: SWITCHING ACTIVE
Info: SWITCHING ON           10
Info: SWITCHING OFF          12
Info: PAIRLIST DISTANCE      13.5
Info: PAIRLIST SHRINK RATE   0.01
Info: PAIRLIST GROW RATE     0.01
Info: PAIRLIST TRIGGER       0.3
Info: PAIRLISTS PER CYCLE    2
Info: PAIRLISTS ENABLED
Info: MARGIN                 1.5
Info: HYDROGEN GROUP CUTOFF  2.5
Info: PATCH DIMENSION        17.5
Info: ENERGY OUTPUT STEPS    5000
Info: CROSSTERM ENERGY INCLUDED IN DIHEDRAL
Info: TIMING OUTPUT STEPS    5000
Info: PRESSURE OUTPUT STEPS  5000
Info: HARMONIC CONSTRAINTS ACTIVE
Info: HARMONIC CONS EXP      2
Info: LANGEVIN DYNAMICS ACTIVE
Info: LANGEVIN TEMPERATURE   310
Info: LANGEVIN DAMPING COEFFICIENT IS 5 INVERSE PS
Info: LANGEVIN DYNAMICS NOT APPLIED TO HYDROGENS
Info: LANGEVIN PISTON PRESSURE CONTROL ACTIVE
Info:        TARGET PRESSURE IS 1.01325 BAR
Info:     OSCILLATION PERIOD IS 200 FS
Info:             DECAY TIME IS 50 FS
Info:     PISTON TEMPERATURE IS 310 K
Info:       PRESSURE CONTROL IS GROUP-BASED
Info:    INITIAL STRAIN RATE IS 1.96345e-05 1.96345e-05 -5.6213e-06
Info:       CELL FLUCTUATION IS ANISOTROPIC
Info:     SHAPE OF CELL IS CONSTRAINED IN X-Y PLANE
Info: PARTICLE MESH EWALD (PME) ACTIVE
Info: PME TOLERANCE               1e-06
Info: PME EWALD COEFFICIENT       0.257952
Info: PME INTERPOLATION ORDER     4
Info: PME GRID DIMENSIONS         160 160 108
Info: PME MAXIMUM GRID SPACING    1
Info: FULL ELECTROSTATIC EVALUATION FREQUENCY      4
Info: USING VERLET I (r-RESPA) MTS SCHEME.
Info: C1 SPLITTING OF LONG RANGE ELECTROSTATICS
Info: PLACING ATOMS IN PATCHES BY HYDROGEN GROUPS
Info: RIGID BONDS TO HYDROGEN : ALL
Info:         ERROR TOLERANCE : 1e-08
Info:          MAX ITERATIONS : 100
Info: RIGID WATER USING SETTLE ALGORITHM
Info: NONBONDED FORCES EVALUATED EVERY 2 STEPS
Info: RANDOM NUMBER SEED     1406482282
Info: USE HYDROGEN BONDS?    NO
Info: COORDINATE PDB         ../phase1c/dat_phase1c.coor
Info: STRUCTURE FILE         ../common/ionized.psf
Info: PARAMETER file: CHARMM format!
Info: PARAMETERS             ../common/parameters_all.prm
Info: USING ARITHMETIC MEAN TO COMBINE L-J SIGMA PARAMETERS
Info: SUMMARY OF PARAMETERS:
Info: 231 BONDS
Info: 615 ANGLES
Info: 936 DIHEDRAL
Info: 55 IMPROPER
Info: 6 CROSSTERM
Info: 152 VDW
Info: 0 VDW_PAIRS
Info: 0 NBTHOLE_PAIRS
Info: STRUCTURE SUMMARY:
Info: 231985 ATOMS
Info: 185243 BONDS
Info: 223663 ANGLES
Info: 247349 DIHEDRALS
Info: 2563 IMPROPERS
Info: 0 CROSSTERMS
Info: 0 EXCLUSIONS
Info: 2061 CONSTRAINTS
Info: 194058 RIGID BONDS
Info: 501897 DEGREES OF FREEDOM
Info: 83965 HYDROGEN GROUPS
Info: 4 ATOMS IN LARGEST HYDROGEN GROUP
Info: 83965 MIGRATION GROUPS
Info: 4 ATOMS IN LARGEST MIGRATION GROUP
Info: TOTAL MASS = 1.38414e+06 amu
Info: TOTAL CHARGE = -0.999934 e
Info: MASS DENSITY = 1.01366 g/cm^3
Info: ATOM DENSITY = 0.102308 atoms/A^3
Info: REMOVING COM VELOCITY -0.00285273 0.00695335 -0.005245
Info: NONBONDED TABLE R-SQUARED SPACING: 0.0625
Info: NONBONDED TABLE SIZE: 769 POINTS
TCL: Minimizing for 2500 steps
ETITLE: TS BOND ANGLE DIHED IMPRP ELECT VDW BOUNDARY MISC KINETIC TOTAL TEMP POTENTIAL TOTAL3 TEMPAVG PRESSURE GPRESSURE VOLUME PRESSAVG GPRESSAVG
ENERGY: 0 10414.6639 55185.8425 38192.8480 565.7951 -587057.0829 16758.2733 0.0000 0.0000 0.0000 -465939.6601 0.0000 -465939.6601 -465939.6601 0.0000 12062.8929 -1350.2463 2267515.3652 12062.8929 -1350.2463
ENERGY: 500 19160.9073 25252.3769 34039.5536 97.4444 -719445.0246 8768.2168 64.1901 0.0000 0.0000 -632062.3355 0.0000 -632062.3355 -632062.3355 0.0000 -6614.7423 -6585.8780 2267515.3652 -6614.7423 -6585.8780
ENERGY: 1000 21396.1647 25648.2289 32361.6451 85.6296 -765522.7086 28162.4427 84.2919 0.0000 0.0000 -657784.3057 0.0000 -657784.3057 -657784.3057 0.0000 -5692.3381 -5638.5527 2267515.3652 -5692.3381 -5638.5527
ENERGY: 1500 22365.2857 26064.8975 31621.1007 82.8458 -789639.9344 38377.5516 109.8145 0.0000 0.0000 -671018.4387 0.0000 -671018.4387 -671018.4387 0.0000 -5050.0035 -5038.5606 2267515.3652 -5050.0035 -5038.5606
ENERGY: 2000 23126.5496 26333.4839 31168.4331 80.9382 -806065.8280 45949.2972 137.9114 0.0000 0.0000 -679269.2147 0.0000 -679269.2147 -679269.2147 0.0000 -4444.8043 -4428.8692 2267515.3652 -4444.8043 -4428.8692
ENERGY: 2500 23399.9072 26371.7980 31040.0774 80.6321 -812208.5548 47602.7718 131.5532 0.0000 0.0000 -683581.8152 0.0000 -683581.8152 -683581.8152 0.0000 -4436.0492 -4439.2606 2267515.3652 -4436.0492 -4439.2606
TCL: Running for 250000 steps
ETITLE: TS BOND ANGLE DIHED IMPRP ELECT VDW BOUNDARY MISC KINETIC TOTAL TEMP POTENTIAL TOTAL3 TEMPAVG PRESSURE GPRESSURE VOLUME PRESSAVG GPRESSAVG
ENERGY: 5000 10763.6098 54382.5036 37975.6850 654.5218 -598393.4778 18329.2986 260.2570 0.0000 149814.8212 -326212.7807 300.4212 -476027.6019 -325835.3544 266.7584 -13580.3871 -32.3540 2259773.7206 -6.4449 -0.9920
ENERGY: 55000 10954.1668 55839.9610 38186.9623 651.0838 -588652.1019 15779.9323 268.3955 0.0000 154427.6144 -312543.9858 309.6712 -466971.6003 -312140.6288 309.5196 -13189.1829 50.1764 2263962.9712 2.8911 2.9237
ENERGY: 105000 10889.9168 55444.6879 37957.4706 646.9914 -588884.5563 15594.9085 290.3797 0.0000 154313.3162 -313746.8851 309.4419 -468060.2013 -313338.6472 309.8068 -13186.7864 71.0252 2260054.4789 -0.7741 -0.8373
ENERGY: 150000 10795.7241 55534.1718 38072.9118 633.2098 -588507.0799 15342.6693 271.5082 0.0000 154286.0859 -313570.7991 309.3873 -467856.8850 -313152.9716 310.0140 -13345.7808 -97.2319 2259877.1326 -0.8581 -0.9129
ENERGY: 200000 10825.2081 55589.6548 38017.0035 643.7459 -587814.0989 14865.0616 286.4385 0.0000 154224.0892 -313362.8974 309.2630 -467586.9866 -312953.3371 310.0322 -13303.2250 -88.6110 2259953.5212 -0.9839 -0.9347
ENERGY: 250000 10771.8342 55074.3685 38171.7479 670.7600 -589307.6442 15941.6024 275.4193 0.0000 154364.4861 -314037.4259 309.5446 -468401.9120 -313654.6474 309.8064 -13171.2776 87.3509 2261834.4277 -2.2625 -2.2771
