Info: SIMULATION PARAMETERS:
Info: TIMESTEP               1
Info: NUMBER OF STEPS        0
Info: STEPS PER CYCLE        20
Info: PERIODIC CELL BASIS 1  146.205 0 0
Info: PERIODIC CELL BASIS 2  0 148 0
Info: PERIODIC CELL BASIS 3  0 0 106.005
Info: PERIODIC CELL CENTER   39.761 40.384 -1.088
Info: WRAPPING ALL CLUSTERS AROUND PERIODIC BOUNDARIES ON OUTPUT.
Info: FIRST LDB TIMESTEP     100
Info: LAST LDB TIMESTEP     -1
Info: HOM BACKGROUND SCALING 1
Info: PME BACKGROUND SCALING 1
Info: REMOVING PATCHES FROM PROCESSOR 0
Info: MIN ATOMS PER PATCH    40
Info: VELOCITY FILE          ../phase2a/dat_equil_phase2a1.restart.vel
Info: CENTER OF MASS MOVING INITIALLY? NO
Info: DIELECTRIC             1
Info: EXCLUDE                SCALED ONE-FOUR
Info: 1-4 ELECTROSTATICS SCALED BY 1
Info: MODIFIED 1-4 VDW PARAMETERS WILL BE USED
Info: DCD FILENAME           ./dat_equil_phase2a2.np.dcd
Info: DCD FREQUENCY          5000
Info: DCD FIRST STEP         5000
Info: DCD FILE WILL CONTAIN UNIT CELL DATA
Info: XST FILENAME           ./dat_equil_phase2a2.np.xst
Info: XST FREQUENCY          5000
Info: NO VELOCITY DCD OUTPUT
Info: NO FORCE DCD OUTPUT
Info: OUTPUT FILENAME        ./dat_equil_phase2a2.np
Info: RESTART FILENAME       ./dat_equil_phase2a2.np.restart
Info: RESTART FREQUENCY      5000
Info: BINARY RESTART FILES WILL BE USED
Info: SWITCHING ACTIVE
Info: SWITCHING ON           10
Info: SWITCHING OFF          12
Info: PAIRLIST DISTANCE      13.5
Info: PAIRLIST SHRINK RATE   0.01
Info: PAIRLIST GROW RATE     0.01
Info: PAIRLIST TRIGGER       0.3
Info: PAIRLISTS PER CYCLE    2
Info: PAIRLISTS ENABLED
Info: MARGIN                 2.5
Info: HYDROGEN GROUP CUTOFF  2.5
Info: PATCH DIMENSION        18.5
Info: ENERGY OUTPUT STEPS    5000
Info: CROSSTERM ENERGY INCLUDED IN DIHEDRAL
Info: TIMING OUTPUT STEPS    5000
Info: PRESSURE OUTPUT STEPS  5000
Info: HARMONIC CONSTRAINTS ACTIVE
Info: HARMONIC CONS EXP      2
Info: LANGEVIN DYNAMICS ACTIVE
Info: LANGEVIN TEMPERATURE   310
Info: LANGEVIN DAMPING COEFFICIENT IS 5 INVERSE PS
Info: LANGEVIN DYNAMICS NOT APPLIED TO HYDROGENS
Info: LANGEVIN PISTON PRESSURE CONTROL ACTIVE
Info:        TARGET PRESSURE IS 1.01325 BAR
Info:     OSCILLATION PERIOD IS 200 FS
Info:             DECAY TIME IS 50 FS
Info:     PISTON TEMPERATURE IS 310 K
Info:       PRESSURE CONTROL IS GROUP-BASED
Info:    INITIAL STRAIN RATE IS 3.38672e-06 3.38672e-06 -3.44419e-05
Info:       CELL FLUCTUATION IS ANISOTROPIC
Info:     SHAPE OF CELL IS CONSTRAINED IN X-Y PLANE
Info: PARTICLE MESH EWALD (PME) ACTIVE
Info: PME TOLERANCE               1e-06
Info: PME EWALD COEFFICIENT       0.257952
Info: PME INTERPOLATION ORDER     4
Info: PME GRID DIMENSIONS         160 160 108
Info: PME MAXIMUM GRID SPACING    1
Info: FULL ELECTROSTATIC EVALUATION FREQUENCY      4
Info: USING VERLET I (r-RESPA) MTS SCHEME.
Info: C1 SPLITTING OF LONG RANGE ELECTROSTATICS
Info: PLACING ATOMS IN PATCHES BY HYDROGEN GROUPS
Info: RIGID BONDS TO HYDROGEN : ALL
Info:         ERROR TOLERANCE : 1e-08
Info:          MAX ITERATIONS : 100
Info: RIGID WATER USING SETTLE ALGORITHM
Info: NONBONDED FORCES EVALUATED EVERY 2 STEPS
Info: RANDOM NUMBER SEED     1406533508
Info: USE HYDROGEN BONDS?    NO
Info: COORDINATE PDB         ../phase2a/dat_equil_phase2a1.coor
Info: STRUCTURE FILE         ../common/ionized.psf
Info: PARAMETER file: CHARMM format!
Info: PARAMETERS             ../common/parameters_all.prm
Info: USING ARITHMETIC MEAN TO COMBINE L-J SIGMA PARAMETERS
Info: BINARY COORDINATES     ../phase2a/dat_equil_phase2a1.restart.coor
Info: SUMMARY OF PARAMETERS:
Info: 231 BONDS
Info: 615 ANGLES
Info: 936 DIHEDRAL
Info: 55 IMPROPER
Info: 6 CROSSTERM
Info: 152 VDW
Info: 0 VDW_PAIRS
Info: 0 NBTHOLE_PAIRS
Info: STRUCTURE SUMMARY:
Info: 231985 ATOMS
Info: 185243 BONDS
Info: 223663 ANGLES
Info: 247349 DIHEDRALS
Info: 2563 IMPROPERS
Info: 0 CROSSTERMS
Info: 0 EXCLUSIONS
Info: 2061 CONSTRAINTS
Info: 194058 RIGID BONDS
Info: 501897 DEGREES OF FREEDOM
Info: 83965 HYDROGEN GROUPS
Info: 4 ATOMS IN LARGEST HYDROGEN GROUP
Info: 83965 MIGRATION GROUPS
Info: 4 ATOMS IN LARGEST MIGRATION GROUP
Info: TOTAL MASS = 1.38414e+06 amu
Info: TOTAL CHARGE = -0.999934 e
Info: MASS DENSITY = 1.00205 g/cm^3
Info: ATOM DENSITY = 0.101137 atoms/A^3
Info: REMOVING COM VELOCITY 0.00322292 0.0143551 -0.000762534
Info: NONBONDED TABLE R-SQUARED SPACING: 0.0625
Info: NONBONDED TABLE SIZE: 769 POINTS
TCL: Running for 250000 steps
ETITLE: TS BOND ANGLE DIHED IMPRP ELECT VDW BOUNDARY MISC KINETIC TOTAL TEMP POTENTIAL TOTAL3 TEMPAVG PRESSURE GPRESSURE VOLUME PRESSAVG GPRESSAVG
ENERGY: 0 10800.7546 55388.0539 38275.9024 657.2032 -587662.2818 16368.2827 304.6563 0.0000 154412.4816 -311454.9470 309.6408 -465867.4286 -311056.9982 309.6408 -13203.5563 -138.3905 2293772.2317 -13203.5563 -138.3905
ENERGY: 50000 10783.2969 55343.3324 38087.2118 649.6416 -589256.7758 15184.6381 289.6284 0.0000 154329.4375 -314589.5892 309.4743 -468919.0267 -314207.6833 309.6342 -13304.7557 -60.1458 2265381.3733 1.8123 1.8266
ENERGY: 100000 10825.8220 55215.0187 37975.1744 648.9713 -588915.9372 15609.0202 295.7954 0.0000 154573.9525 -313772.1828 309.9646 -468346.1353 -313386.5300 309.5545 -13077.8803 142.9364 2263630.1804 -0.3152 -0.3658
ENERGY: 150000 10711.7293 55606.7665 38019.0445 642.6782 -588734.3998 15280.8908 277.5081 0.0000 154374.5304 -313821.2519 309.5647 -468195.7823 -313411.8100 310.0464 -13148.3519 96.3307 2257433.7525 1.4870 1.4900
ENERGY: 200000 10946.1898 55735.7856 38024.1308 644.9790 -589253.9211 15296.2300 307.5840 0.0000 153672.8109 -314626.2110 308.1576 -468299.0219 -314245.1799 309.5862 -13315.6264 -40.3083 2256759.0835 2.2805 2.2675
ENERGY: 250000 10816.3484 55677.1308 38019.0721 672.0400 -588687.7830 15272.0385 300.2681 0.0000 154182.3142 -313748.5709 309.1793 -467930.8851 -313367.9269 309.5785 -13245.0329 -2.4994 2260719.3752 2.8370 2.7933
