Info: SIMULATION PARAMETERS:
Info: TIMESTEP               1
Info: NUMBER OF STEPS        0
Info: STEPS PER CYCLE        20
Info: PERIODIC CELL BASIS 1  127.826 0 0
Info: PERIODIC CELL BASIS 2  0 128.971 0
Info: PERIODIC CELL BASIS 3  0 0 102.745
Info: PERIODIC CELL CENTER   -0.389 0.194 1.795
Info: WRAPPING ALL CLUSTERS AROUND PERIODIC BOUNDARIES ON OUTPUT.
Info: FIRST LDB TIMESTEP     100
Info: LAST LDB TIMESTEP     -1
Info: HOM BACKGROUND SCALING 1
Info: PME BACKGROUND SCALING 1
Info: MAX SELF PARTITIONS    20
Info: MAX PAIR PARTITIONS    8
Info: SELF PARTITION ATOMS   154
Info: SELF2 PARTITION ATOMS   154
Info: PAIR PARTITION ATOMS   318
Info: PAIR2 PARTITION ATOMS  637
Info: MIN ATOMS PER PATCH    100
Info: VELOCITY FILE          /home/jam2079/Pathrover/2jln/phase1c/dat_phase1c.vel
Info: CENTER OF MASS MOVING INITIALLY? NO
Info: DIELECTRIC             1
Info: EXCLUDE                SCALED ONE-FOUR
Info: 1-4 ELECTROSTATICS SCALED BY 1
Info: MODIFIED 1-4 VDW PARAMETERS WILL BE USED
Info: DCD FILENAME           ./dat_equil_phase2a1.np.dcd
Info: DCD FREQUENCY          5000
Info: DCD FIRST STEP         5000
Info: DCD FILE WILL CONTAIN UNIT CELL DATA
Info: XST FILENAME           ./dat_equil_phase2a1.np.xst
Info: XST FREQUENCY          5000
Info: NO VELOCITY DCD OUTPUT
Info: OUTPUT FILENAME        ./dat_equil_phase2a1.np
Info: RESTART FILENAME       ./dat_equil_phase2a1.np.restart
Info: RESTART FREQUENCY      5000
Info: BINARY RESTART FILES WILL BE USED
Info: SWITCHING ACTIVE
Info: SWITCHING ON           10
Info: SWITCHING OFF          12
Info: PAIRLIST DISTANCE      13.5
Info: PAIRLIST SHRINK RATE   0.01
Info: PAIRLIST GROW RATE     0.01
Info: PAIRLIST TRIGGER       0.3
Info: PAIRLISTS PER CYCLE    2
Info: PAIRLISTS ENABLED
Info: MARGIN                 1.5
Info: HYDROGEN GROUP CUTOFF  2.5
Info: PATCH DIMENSION        17.5
Info: ENERGY OUTPUT STEPS    5000
Info: CROSSTERM ENERGY INCLUDED IN DIHEDRAL
Info: TIMING OUTPUT STEPS    5000
Info: PRESSURE OUTPUT STEPS  5000
Info: HARMONIC CONSTRAINTS ACTIVE
Info: HARMONIC CONS EXP      2
Info: LANGEVIN DYNAMICS ACTIVE
Info: LANGEVIN TEMPERATURE   310
Info: LANGEVIN DAMPING COEFFICIENT IS 5 INVERSE PS
Info: LANGEVIN DYNAMICS NOT APPLIED TO HYDROGENS
Info: LANGEVIN PISTON PRESSURE CONTROL ACTIVE
Info:        TARGET PRESSURE IS 1.01325 BAR
Info:     OSCILLATION PERIOD IS 200 FS
Info:             DECAY TIME IS 50 FS
Info:     PISTON TEMPERATURE IS 310 K
Info:       PRESSURE CONTROL IS GROUP-BASED
Info:    INITIAL STRAIN RATE IS 2.46168e-06 2.46168e-06 1.97779e-05
Info:       CELL FLUCTUATION IS ANISOTROPIC
Info:     SHAPE OF CELL IS CONSTRAINED IN X-Y PLANE
Info: PARTICLE MESH EWALD (PME) ACTIVE
Info: PME TOLERANCE               1e-06
Info: PME EWALD COEFFICIENT       0.257952
Info: PME INTERPOLATION ORDER     4
Info: PME GRID DIMENSIONS         128 132 108
Info: PME MAXIMUM GRID SPACING    1
Info: FULL ELECTROSTATIC EVALUATION FREQUENCY      4
Info: USING VERLET I (r-RESPA) MTS SCHEME.
Info: C1 SPLITTING OF LONG RANGE ELECTROSTATICS
Info: PLACING ATOMS IN PATCHES BY HYDROGEN GROUPS
Info: RIGID BONDS TO HYDROGEN : ALL
Info:         ERROR TOLERANCE : 1e-08
Info:          MAX ITERATIONS : 100
Info: RIGID WATER USING SETTLE ALGORITHM
Info: NONBONDED FORCES EVALUATED EVERY 2 STEPS
Info: RANDOM NUMBER SEED     1399067758
Info: USE HYDROGEN BONDS?    NO
Info: COORDINATE PDB         /home/jam2079/Pathrover/2jln/phase1c/dat_phase1c.coor
Info: STRUCTURE FILE         /home/jam2079/Pathrover/2jln/common/ionized.psf
Info: PARAMETER file: CHARMM format!
Info: PARAMETERS             /home/jam2079/Pathrover/2jln/common/parameters_all.prm
Info: USING ARITHMETIC MEAN TO COMBINE L-J SIGMA PARAMETERS
Info: SUMMARY OF PARAMETERS:
Info: 231 BONDS
Info: 615 ANGLES
Info: 936 DIHEDRAL
Info: 55 IMPROPER
Info: 6 CROSSTERM
Info: 152 VDW
Info: 0 VDW_PAIRS
Info: STRUCTURE SUMMARY:
Info: 172765 ATOMS
Info: 137441 BONDS
Info: 163935 ANGLES
Info: 179819 DIHEDRALS
Info: 2052 IMPROPERS
Info: 0 CROSSTERMS
Info: 0 EXCLUSIONS
Info: 1846 CONSTRAINTS
Info: 145106 RIGID BONDS
Info: 373189 DEGREES OF FREEDOM
Info: 62497 HYDROGEN GROUPS
Info: 4 ATOMS IN LARGEST HYDROGEN GROUP
Info: 62497 MIGRATION GROUPS
Info: 4 ATOMS IN LARGEST MIGRATION GROUP
Info: TOTAL MASS = 1.03211e+06 amu
Info: TOTAL CHARGE = 4.77266e-05 e
Info: MASS DENSITY = 1.01185 g/cm^3
Info: ATOM DENSITY = 0.101996 atoms/A^3
Info: REMOVING COM VELOCITY -0.0155923 0.00828189 0.0133708
Info: NONBONDED TABLE R-SQUARED SPACING: 0.0625
Info: NONBONDED TABLE SIZE: 769 POINTS
TCL: Minimizing for 2500 steps
ETITLE: TS BOND ANGLE DIHED IMPRP ELECT VDW BOUNDARY MISC KINETIC TOTAL TEMP POTENTIAL TOTAL3 TEMPAVG PRESSURE GPRESSURE VOLUME PRESSAVG GPRESSAVG
ENERGY: 0 7363.3520 39589.0737 27775.8106 405.1658 -440724.7442 13611.2323 0.0000 0.0000 0.0000 -351980.1098 0.0000 -351980.1098 -351980.1098 0.0000 12431.2895 -1099.7188 1693838.3547 12431.2895 -1099.7188
ENERGY: 500 16810.7721 19414.9004 23082.6001 66.0447 -591202.6122 28618.6278 92.6298 0.0000 0.0000 -503117.0374 0.0000 -503117.0374 -503117.0374 0.0000 -5180.5127 -5164.3315 1693838.3547 -5180.5127 -5164.3315
ENERGY: 1000 17263.9186 19640.2983 22794.3195 62.1472 -602847.8426 32893.1071 104.5968 0.0000 0.0000 -510089.4549 0.0000 -510089.4549 -510089.4549 0.0000 -4873.7824 -4909.2925 1693838.3547 -4873.7824 -4909.2925
ENERGY: 1500 17568.7117 19643.1141 22664.8224 61.5741 -608250.4202 35470.8822 110.9937 0.0000 0.0000 -512730.3218 0.0000 -512730.3218 -512730.3218 0.0000 -4611.1697 -4613.6006 1693838.3547 -4611.1697 -4613.6006
ENERGY: 2000 17696.5239 19690.5997 22607.1071 61.2894 -610941.3492 36633.1773 111.2708 0.0000 0.0000 -514141.3810 0.0000 -514141.3810 -514141.3810 0.0000 -4496.5066 -4497.4031 1693838.3547 -4496.5066 -4497.4031
ENERGY: 2500 17790.5998 19691.4978 22572.2066 61.3346 -612779.9113 37524.0371 112.7262 0.0000 0.0000 -515027.5091 0.0000 -515027.5091 -515027.5091 0.0000 -4386.0386 -4383.7838 1693838.3547 -4386.0386 -4383.7838
TCL: Running for 250000 steps
ETITLE: TS BOND ANGLE DIHED IMPRP ELECT VDW BOUNDARY MISC KINETIC TOTAL TEMP POTENTIAL TOTAL3 TEMPAVG PRESSURE GPRESSURE VOLUME PRESSAVG GPRESSAVG
ENERGY: 5000 8017.8925 39461.6670 27745.6878 528.9439 -449380.7896 14350.0497 215.7672 0.0000 111573.5514 -247487.2300 300.9004 -359060.7814 -247191.3436 266.3620 -13677.0904 7.0613 1688747.5895 -13.8052 -8.2582
ENERGY: 55000 7975.0240 40198.8090 27623.0187 486.1645 -441129.8905 12365.2884 224.8356 0.0000 115270.6004 -236986.1500 310.8709 -352256.7504 -236690.3206 309.7576 -13421.7388 -78.9032 1690056.0237 -0.3561 -0.3319
ENERGY: 105000 8034.6007 40283.4020 27715.1685 514.8697 -440427.8280 11611.5871 233.9029 0.0000 114668.2700 -237366.0271 309.2465 -352034.2971 -237079.8026 309.9304 -13419.3371 -83.6962 1688929.7814 -2.0850 -2.0720
ENERGY: 150000 8096.8730 40346.2836 27692.9211 523.3749 -441937.8812 11919.2134 232.5783 0.0000 114891.7587 -238234.8782 309.8492 -353126.6369 -237946.5654 309.9389 -13419.7714 -24.1668 1685474.5607 1.0553 0.9993
ENERGY: 200000 7935.5084 40609.8482 27701.1699 546.7251 -441780.8220 12048.0454 228.5245 0.0000 114665.6302 -238045.3703 309.2394 -352711.0005 -237750.6073 310.1228 -13481.1885 -85.4729 1687426.2276 -0.4069 -0.4797
ENERGY: 250000 7966.2812 40228.4091 27668.5572 509.3415 -442296.7389 12384.8509 229.7670 0.0000 114942.0471 -238367.4849 309.9849 -353309.5320 -238071.8592 309.8707 -13293.7635 104.6479 1687329.1514 1.4129 1.3860
