Info: SIMULATION PARAMETERS:
Info: TIMESTEP               1
Info: NUMBER OF STEPS        0
Info: STEPS PER CYCLE        20
Info: PERIODIC CELL BASIS 1  133.368 0 0
Info: PERIODIC CELL BASIS 2  0 138.981 0
Info: PERIODIC CELL BASIS 3  0 0 118.249
Info: PERIODIC CELL CENTER   39.547 42.92 2.551
Info: WRAPPING ALL CLUSTERS AROUND PERIODIC BOUNDARIES ON OUTPUT.
Info: FIRST LDB TIMESTEP     100
Info: LAST LDB TIMESTEP     -1
Info: HOM BACKGROUND SCALING 1
Info: PME BACKGROUND SCALING 1
Info: MAX SELF PARTITIONS    20
Info: MAX PAIR PARTITIONS    8
Info: SELF PARTITION ATOMS   154
Info: SELF2 PARTITION ATOMS   154
Info: PAIR PARTITION ATOMS   318
Info: PAIR2 PARTITION ATOMS  637
Info: MIN ATOMS PER PATCH    100
Info: VELOCITY FILE          /home/jam2079/Pathrover/3tt3/phase1c/dat_phase1c.vel
Info: CENTER OF MASS MOVING INITIALLY? NO
Info: DIELECTRIC             1
Info: EXCLUDE                SCALED ONE-FOUR
Info: 1-4 ELECTROSTATICS SCALED BY 1
Info: MODIFIED 1-4 VDW PARAMETERS WILL BE USED
Info: DCD FILENAME           ./dat_equil_phase2a1.np.dcd
Info: DCD FREQUENCY          5000
Info: DCD FIRST STEP         5000
Info: DCD FILE WILL CONTAIN UNIT CELL DATA
Info: XST FILENAME           ./dat_equil_phase2a1.np.xst
Info: XST FREQUENCY          5000
Info: NO VELOCITY DCD OUTPUT
Info: OUTPUT FILENAME        ./dat_equil_phase2a1.np
Info: RESTART FILENAME       ./dat_equil_phase2a1.np.restart
Info: RESTART FREQUENCY      5000
Info: BINARY RESTART FILES WILL BE USED
Info: SWITCHING ACTIVE
Info: SWITCHING ON           10
Info: SWITCHING OFF          12
Info: PAIRLIST DISTANCE      13.5
Info: PAIRLIST SHRINK RATE   0.01
Info: PAIRLIST GROW RATE     0.01
Info: PAIRLIST TRIGGER       0.3
Info: PAIRLISTS PER CYCLE    2
Info: PAIRLISTS ENABLED
Info: MARGIN                 1.5
Info: HYDROGEN GROUP CUTOFF  2.5
Info: PATCH DIMENSION        17.5
Info: ENERGY OUTPUT STEPS    5000
Info: CROSSTERM ENERGY INCLUDED IN DIHEDRAL
Info: TIMING OUTPUT STEPS    5000
Info: PRESSURE OUTPUT STEPS  5000
Info: HARMONIC CONSTRAINTS ACTIVE
Info: HARMONIC CONS EXP      2
Info: LANGEVIN DYNAMICS ACTIVE
Info: LANGEVIN TEMPERATURE   310
Info: LANGEVIN DAMPING COEFFICIENT IS 5 INVERSE PS
Info: LANGEVIN DYNAMICS NOT APPLIED TO HYDROGENS
Info: LANGEVIN PISTON PRESSURE CONTROL ACTIVE
Info:        TARGET PRESSURE IS 1.01325 BAR
Info:     OSCILLATION PERIOD IS 200 FS
Info:             DECAY TIME IS 50 FS
Info:     PISTON TEMPERATURE IS 310 K
Info:       PRESSURE CONTROL IS GROUP-BASED
Info:    INITIAL STRAIN RATE IS 2.22488e-05 2.22488e-05 -1.01272e-05
Info:       CELL FLUCTUATION IS ANISOTROPIC
Info:     SHAPE OF CELL IS CONSTRAINED IN X-Y PLANE
Info: PARTICLE MESH EWALD (PME) ACTIVE
Info: PME TOLERANCE               1e-06
Info: PME EWALD COEFFICIENT       0.257952
Info: PME INTERPOLATION ORDER     4
Info: PME GRID DIMENSIONS         144 144 120
Info: PME MAXIMUM GRID SPACING    1
Info: FULL ELECTROSTATIC EVALUATION FREQUENCY      4
Info: USING VERLET I (r-RESPA) MTS SCHEME.
Info: C1 SPLITTING OF LONG RANGE ELECTROSTATICS
Info: PLACING ATOMS IN PATCHES BY HYDROGEN GROUPS
Info: RIGID BONDS TO HYDROGEN : ALL
Info:         ERROR TOLERANCE : 1e-08
Info:          MAX ITERATIONS : 100
Info: RIGID WATER USING SETTLE ALGORITHM
Info: NONBONDED FORCES EVALUATED EVERY 2 STEPS
Info: RANDOM NUMBER SEED     1399336015
Info: USE HYDROGEN BONDS?    NO
Info: COORDINATE PDB         /home/jam2079/Pathrover/3tt3/phase1c/dat_phase1c.coor
Info: STRUCTURE FILE         /home/jam2079/Pathrover/3tt3/common/ionized.psf
Info: PARAMETER file: CHARMM format!
Info: PARAMETERS             /home/jam2079/Pathrover/3tt3/common/parameters_all.prm
Info: USING ARITHMETIC MEAN TO COMBINE L-J SIGMA PARAMETERS
Info: SUMMARY OF PARAMETERS:
Info: 231 BONDS
Info: 615 ANGLES
Info: 936 DIHEDRAL
Info: 55 IMPROPER
Info: 6 CROSSTERM
Info: 152 VDW
Info: 0 VDW_PAIRS
Info: STRUCTURE SUMMARY:
Info: 222884 ATOMS
Info: 173098 BONDS
Info: 191327 ANGLES
Info: 198094 DIHEDRALS
Info: 2265 IMPROPERS
Info: 0 CROSSTERMS
Info: 0 EXCLUSIONS
Info: 2061 CONSTRAINTS
Info: 192346 RIGID BONDS
Info: 476306 DEGREES OF FREEDOM
Info: 79781 HYDROGEN GROUPS
Info: 4 ATOMS IN LARGEST HYDROGEN GROUP
Info: 79781 MIGRATION GROUPS
Info: 4 ATOMS IN LARGEST MIGRATION GROUP
Info: TOTAL MASS = 1.33362e+06 amu
Info: TOTAL CHARGE = 5.30519e-05 e
Info: MASS DENSITY = 1.01038 g/cm^3
Info: ATOM DENSITY = 0.101689 atoms/A^3
Info: REMOVING COM VELOCITY -0.0292079 0.0042504 -0.00435269
Info: NONBONDED TABLE R-SQUARED SPACING: 0.0625
Info: NONBONDED TABLE SIZE: 769 POINTS
TCL: Minimizing for 2500 steps
ETITLE: TS BOND ANGLE DIHED IMPRP ELECT VDW BOUNDARY MISC KINETIC TOTAL TEMP POTENTIAL TOTAL3 TEMPAVG PRESSURE GPRESSURE VOLUME PRESSAVG GPRESSAVG
ENERGY: 0 8150.4504 43705.6821 30547.0039 435.3668 -605883.3249 27330.2411 0.0000 0.0000 0.0000 -495714.5806 0.0000 -495714.5806 -495714.5806 0.0000 13796.2905 -841.3957 2191818.2938 13796.2905 -841.3957
ENERGY: 500 23154.8464 24594.0249 25341.6019 76.8848 -816185.0515 49188.8242 123.1146 0.0000 0.0000 -693705.7546 0.0000 -693705.7546 -693705.7546 0.0000 -5259.7777 -5327.5984 2191818.2938 -5259.7777 -5327.5984
ENERGY: 1000 24297.4130 24895.9519 24954.5032 73.8667 -836782.5177 58069.7407 145.4676 0.0000 0.0000 -704345.5745 0.0000 -704345.5745 -704345.5745 0.0000 -4720.5786 -4692.0190 2191818.2938 -4720.5786 -4692.0190
ENERGY: 1500 24532.0615 25007.3541 24851.6804 73.6967 -843370.3221 60627.2939 147.4491 0.0000 0.0000 -708130.7864 0.0000 -708130.7864 -708130.7864 0.0000 -4520.5843 -4537.7975 2191818.2938 -4520.5843 -4537.7975
ENERGY: 2000 24743.0408 25112.5285 24797.6527 73.0136 -847116.7120 62284.0933 151.6563 0.0000 0.0000 -709954.7268 0.0000 -709954.7268 -709954.7268 0.0000 -4406.8601 -4401.6443 2191818.2938 -4406.8601 -4401.6443
ENERGY: 2500 24867.6912 25102.4435 24771.5971 73.2106 -849488.6310 63517.3104 155.0669 0.0000 0.0000 -711001.3113 0.0000 -711001.3113 -711001.3113 0.0000 -4284.3049 -4272.8729 2191818.2938 -4284.3049 -4272.8729
TCL: Running for 250000 steps
ETITLE: TS BOND ANGLE DIHED IMPRP ELECT VDW BOUNDARY MISC KINETIC TOTAL TEMP POTENTIAL TOTAL3 TEMPAVG PRESSURE GPRESSURE VOLUME PRESSAVG GPRESSAVG
ENERGY: 5000 8694.0823 43575.0420 30514.3042 545.8234 -616994.9165 28241.9021 277.8717 0.0000 141934.1464 -363211.7444 299.9102 -505145.8908 -362852.7207 265.1988 -14842.1348 -8.7303 2185092.3910 -6.6380 -0.5609
ENERGY: 55000 9010.6733 44036.7110 30465.1141 597.2474 -606453.8264 25474.0275 292.3922 0.0000 146454.4236 -350123.2371 309.4616 -496577.6608 -349770.3150 309.6769 -14637.3002 -108.3477 2184256.9695 -0.0480 -0.0184
ENERGY: 105000 8807.5840 44384.1253 30465.7676 555.8403 -606807.2941 25637.6562 296.8822 0.0000 146484.7750 -350174.6634 309.5258 -496659.4384 -349809.9031 309.5684 -14511.0678 24.3468 2183540.3892 -1.5227 -1.6194
ENERGY: 150000 8882.3207 44379.5665 30572.0587 580.4079 -606831.8897 25684.3239 300.4871 0.0000 146372.1456 -350060.5794 309.2878 -496432.7250 -349718.3679 309.9541 -14522.0722 22.9384 2179822.1039 3.3322 3.3504
ENERGY: 200000 8781.2968 44423.4891 30470.0212 511.7747 -606749.6003 25243.4010 310.5195 0.0000 145757.3276 -351251.7704 307.9887 -497009.0979 -350915.7326 309.6644 -14423.7302 128.0934 2177480.9507 1.7626 1.7681
ENERGY: 250000 8814.8427 44436.1827 30377.3392 562.4903 -606807.7440 25224.6875 316.7282 0.0000 146664.3220 -350411.1513 309.9052 -497075.4733 -350059.4698 309.2982 -14417.7169 126.0726 2179413.8153 -0.1512 -0.1607
