Info: SIMULATION PARAMETERS:
Info: TIMESTEP               2
Info: NUMBER OF STEPS        0
Info: STEPS PER CYCLE        12
Info: PERIODIC CELL BASIS 1  122.36 0 0
Info: PERIODIC CELL BASIS 2  0 123.457 0
Info: PERIODIC CELL BASIS 3  0 0 111.395
Info: PERIODIC CELL CENTER   -0.424 0.217 0.822
Info: WRAPPING ALL CLUSTERS AROUND PERIODIC BOUNDARIES ON OUTPUT.
Info: FIRST LDB TIMESTEP     60
Info: LAST LDB TIMESTEP     -1
Info: HOM BACKGROUND SCALING 1
Info: PME BACKGROUND SCALING 1
Info: REMOVING PATCHES FROM PROCESSOR 0
Info: MIN ATOMS PER PATCH    40
Info: VELOCITY FILE          /global/u1/j/jmedina/Pathrover/2x79/phase2b/dat_phase2b3.vel
Info: CENTER OF MASS MOVING INITIALLY? NO
Info: DIELECTRIC             1
Info: EXCLUDE                SCALED ONE-FOUR
Info: 1-4 ELECTROSTATICS SCALED BY 1
Info: MODIFIED 1-4 VDW PARAMETERS WILL BE USED
Info: DCD FILENAME           ./dat_phase3_10.dcd
Info: DCD FREQUENCY          10000
Info: DCD FIRST STEP         10000
Info: DCD FILE WILL CONTAIN UNIT CELL DATA
Info: XST FILENAME           ./dat_phase3_10.xst
Info: XST FREQUENCY          10000
Info: NO VELOCITY DCD OUTPUT
Info: NO FORCE DCD OUTPUT
Info: OUTPUT FILENAME        ./dat_phase3_10
Info: RESTART FILENAME       ./dat_phase3_10.restart
Info: RESTART FREQUENCY      10000
Info: BINARY RESTART FILES WILL BE USED
Info: SWITCHING ACTIVE
Info: SWITCHING ON           10
Info: SWITCHING OFF          12
Info: PAIRLIST DISTANCE      13.5
Info: PAIRLIST SHRINK RATE   0.01
Info: PAIRLIST GROW RATE     0.01
Info: PAIRLIST TRIGGER       0.3
Info: PAIRLISTS PER CYCLE    2
Info: PAIRLISTS ENABLED
Info: MARGIN                 1.5
Info: HYDROGEN GROUP CUTOFF  2.5
Info: PATCH DIMENSION        17.5
Info: ENERGY OUTPUT STEPS    30000
Info: CROSSTERM ENERGY INCLUDED IN DIHEDRAL
Info: TIMING OUTPUT STEPS    10000
Info: PRESSURE OUTPUT STEPS  10000
Info: LANGEVIN DYNAMICS ACTIVE
Info: LANGEVIN TEMPERATURE   310
Info: LANGEVIN DAMPING COEFFICIENT IS 5 INVERSE PS
Info: LANGEVIN DYNAMICS NOT APPLIED TO HYDROGENS
Info: LANGEVIN PISTON PRESSURE CONTROL ACTIVE
Info:        TARGET PRESSURE IS 1.01325 BAR
Info:     OSCILLATION PERIOD IS 200 FS
Info:             DECAY TIME IS 50 FS
Info:     PISTON TEMPERATURE IS 310 K
Info:       PRESSURE CONTROL IS GROUP-BASED
Info:    INITIAL STRAIN RATE IS 2.40674e-05 2.40674e-05 4.23804e-05
Info:       CELL FLUCTUATION IS ANISOTROPIC
Info:     SHAPE OF CELL IS CONSTRAINED IN X-Y PLANE
Info: PARTICLE MESH EWALD (PME) ACTIVE
Info: PME TOLERANCE               1e-06
Info: PME EWALD COEFFICIENT       0.257952
Info: PME INTERPOLATION ORDER     4
Info: PME GRID DIMENSIONS         128 128 112
Info: PME MAXIMUM GRID SPACING    1
Info: FULL ELECTROSTATIC EVALUATION FREQUENCY      3
Info: USING VERLET I (r-RESPA) MTS SCHEME.
Info: C1 SPLITTING OF LONG RANGE ELECTROSTATICS
Info: PLACING ATOMS IN PATCHES BY HYDROGEN GROUPS
Info: RIGID BONDS TO HYDROGEN : ALL
Info:         ERROR TOLERANCE : 1e-08
Info:          MAX ITERATIONS : 100
Info: RIGID WATER USING SETTLE ALGORITHM
Info: RANDOM NUMBER SEED     1403350516
Info: USE HYDROGEN BONDS?    NO
Info: COORDINATE PDB         /global/u1/j/jmedina/Pathrover/2x79/phase2b/dat_phase2b3.coor
Info: STRUCTURE FILE         /global/u1/j/jmedina/Pathrover/2x79/common/ionized.psf
Info: PARAMETER file: CHARMM format!
Info: PARAMETERS             /global/u1/j/jmedina/Pathrover/2x79/common/parameters_all.prm
Info: USING ARITHMETIC MEAN TO COMBINE L-J SIGMA PARAMETERS
Info: BINARY COORDINATES     /global/u1/j/jmedina/Pathrover/2x79/phase3/dat_phase3_9.restart.coor
Info: SUMMARY OF PARAMETERS:
Info: 231 BONDS
Info: 615 ANGLES
Info: 936 DIHEDRAL
Info: 55 IMPROPER
Info: 6 CROSSTERM
Info: 152 VDW
Info: 0 VDW_PAIRS
Info: 0 NBTHOLE_PAIRS
Info: STRUCTURE SUMMARY:
Info: 173052 ATOMS
Info: 137795 BONDS
Info: 164816 ANGLES
Info: 181135 DIHEDRALS
Info: 2060 IMPROPERS
Info: 0 CROSSTERMS
Info: 0 EXCLUSIONS
Info: 145197 RIGID BONDS
Info: 373959 DEGREES OF FREEDOM
Info: 62622 HYDROGEN GROUPS
Info: 4 ATOMS IN LARGEST HYDROGEN GROUP
Info: 62622 MIGRATION GROUPS
Info: 4 ATOMS IN LARGEST MIGRATION GROUP
Info: TOTAL MASS = 1.03371e+06 amu
Info: TOTAL CHARGE = 4.80842e-05 e
Info: MASS DENSITY = 1.02008 g/cm^3
Info: ATOM DENSITY = 0.102839 atoms/A^3
Info: REMOVING COM VELOCITY -0.015195 -0.00888456 0.0103691
Info: NONBONDED TABLE R-SQUARED SPACING: 0.0625
Info: NONBONDED TABLE SIZE: 769 POINTS
TCL: Running for 10200000 steps
ETITLE: TS BOND ANGLE DIHED IMPRP ELECT VDW BOUNDARY MISC KINETIC TOTAL TEMP POTENTIAL TOTAL3 TEMPAVG PRESSURE GPRESSURE VOLUME PRESSAVG GPRESSAVG
ENERGY: 0 8368.3377 41453.7566 27810.9204 491.7756 -441551.9096 11089.9881 0.0000 0.0000 91458.6734 -260878.4578 246.1452 -352337.1312 -260134.4586 246.1452 64.3089 96.1529 1682754.9841 64.3089 96.1529
ENERGY: 1050000 8258.9403 41312.7302 27826.9642 489.7374 -442652.4111 11976.3877 0.0000 0.0000 115083.6538 -237703.9977 309.7277 -352787.6514 -236955.7877 309.2326 131.1371 172.3692 1684805.3195 -0.0275 -0.0356
ENERGY: 2070000 8250.5790 41388.4584 27730.4996 509.5337 -442627.1241 11526.9169 0.0000 0.0000 115132.3472 -238088.7893 309.8587 -353221.1365 -237332.0918 309.3052 5.2668 43.3307 1679641.9454 1.6329 1.6417
ENERGY: 3120000 8189.3523 41214.3250 27776.9436 486.9665 -442466.2397 11825.6838 0.0000 0.0000 114402.8595 -238570.1090 307.8955 -352972.9684 -237828.0427 309.1046 -25.3338 12.5627 1688077.4667 2.5253 2.5058
ENERGY: 4140000 8250.8410 41318.9920 27745.6279 530.2247 -442540.2977 11503.9016 0.0000 0.0000 115515.6768 -237675.0338 310.8904 -353190.7106 -236942.5618 309.4984 -84.0048 -44.5111 1683385.9306 1.6668 1.6710
ENERGY: 5190000 8214.6958 41461.7096 27677.8285 558.7788 -443470.0967 12278.9369 0.0000 0.0000 115059.1755 -238218.9716 309.6618 -353278.1471 -237477.7715 309.2795 207.2175 241.6306 1682417.9225 -0.0008 -0.0119
