Info: SIMULATION PARAMETERS:
Info: TIMESTEP               1
Info: NUMBER OF STEPS        0
Info: STEPS PER CYCLE        20
Info: PERIODIC CELL BASIS 1  122.055 0 0
Info: PERIODIC CELL BASIS 2  0 123.149 0
Info: PERIODIC CELL BASIS 3  0 0 114.985
Info: PERIODIC CELL CENTER   -0.405 0.185 1.712
Info: WRAPPING ALL CLUSTERS AROUND PERIODIC BOUNDARIES ON OUTPUT.
Info: FIRST LDB TIMESTEP     100
Info: LAST LDB TIMESTEP     -1
Info: HOM BACKGROUND SCALING 1
Info: PME BACKGROUND SCALING 1
Info: REMOVING PATCHES FROM PROCESSOR 0
Info: MIN ATOMS PER PATCH    40
Info: VELOCITY FILE          ../phase2a/dat_equil_phase2a3.restart.vel
Info: CENTER OF MASS MOVING INITIALLY? NO
Info: DIELECTRIC             1
Info: EXCLUDE                SCALED ONE-FOUR
Info: 1-4 ELECTROSTATICS SCALED BY 1
Info: MODIFIED 1-4 VDW PARAMETERS WILL BE USED
Info: DCD FILENAME           ./dat_equil_phase2a4.np.dcd
Info: DCD FREQUENCY          5000
Info: DCD FIRST STEP         5000
Info: DCD FILE WILL CONTAIN UNIT CELL DATA
Info: XST FILENAME           ./dat_equil_phase2a4.np.xst
Info: XST FREQUENCY          5000
Info: NO VELOCITY DCD OUTPUT
Info: NO FORCE DCD OUTPUT
Info: OUTPUT FILENAME        ./dat_equil_phase2a4.np
Info: RESTART FILENAME       ./dat_equil_phase2a4.np.restart
Info: RESTART FREQUENCY      5000
Info: BINARY RESTART FILES WILL BE USED
Info: SWITCHING ACTIVE
Info: SWITCHING ON           10
Info: SWITCHING OFF          12
Info: PAIRLIST DISTANCE      13.5
Info: PAIRLIST SHRINK RATE   0.01
Info: PAIRLIST GROW RATE     0.01
Info: PAIRLIST TRIGGER       0.3
Info: PAIRLISTS PER CYCLE    2
Info: PAIRLISTS ENABLED
Info: MARGIN                 1.5
Info: HYDROGEN GROUP CUTOFF  2.5
Info: PATCH DIMENSION        17.5
Info: ENERGY OUTPUT STEPS    5000
Info: CROSSTERM ENERGY INCLUDED IN DIHEDRAL
Info: TIMING OUTPUT STEPS    5000
Info: PRESSURE OUTPUT STEPS  5000
Info: HARMONIC CONSTRAINTS ACTIVE
Info: HARMONIC CONS EXP      2
Info: LANGEVIN DYNAMICS ACTIVE
Info: LANGEVIN TEMPERATURE   310
Info: LANGEVIN DAMPING COEFFICIENT IS 5 INVERSE PS
Info: LANGEVIN DYNAMICS NOT APPLIED TO HYDROGENS
Info: LANGEVIN PISTON PRESSURE CONTROL ACTIVE
Info:        TARGET PRESSURE IS 1.01325 BAR
Info:     OSCILLATION PERIOD IS 200 FS
Info:             DECAY TIME IS 50 FS
Info:     PISTON TEMPERATURE IS 310 K
Info:       PRESSURE CONTROL IS GROUP-BASED
Info:    INITIAL STRAIN RATE IS 4.94375e-06 4.94375e-06 1.89765e-05
Info:       CELL FLUCTUATION IS ANISOTROPIC
Info:     SHAPE OF CELL IS CONSTRAINED IN X-Y PLANE
Info: PARTICLE MESH EWALD (PME) ACTIVE
Info: PME TOLERANCE               1e-06
Info: PME EWALD COEFFICIENT       0.257952
Info: PME INTERPOLATION ORDER     4
Info: PME GRID DIMENSIONS         128 128 120
Info: PME MAXIMUM GRID SPACING    1
Info: FULL ELECTROSTATIC EVALUATION FREQUENCY      4
Info: USING VERLET I (r-RESPA) MTS SCHEME.
Info: C1 SPLITTING OF LONG RANGE ELECTROSTATICS
Info: PLACING ATOMS IN PATCHES BY HYDROGEN GROUPS
Info: RIGID BONDS TO HYDROGEN : ALL
Info:         ERROR TOLERANCE : 1e-08
Info:          MAX ITERATIONS : 100
Info: RIGID WATER USING SETTLE ALGORITHM
Info: NONBONDED FORCES EVALUATED EVERY 2 STEPS
Info: RANDOM NUMBER SEED     1404221247
Info: USE HYDROGEN BONDS?    NO
Info: COORDINATE PDB         ../phase2a/dat_equil_phase2a3.coor
Info: STRUCTURE FILE         ../common/ionized.psf
Info: PARAMETER file: CHARMM format!
Info: PARAMETERS             ../common/parameters_all.prm
Info: USING ARITHMETIC MEAN TO COMBINE L-J SIGMA PARAMETERS
Info: BINARY COORDINATES     ../phase2a/dat_equil_phase2a3.restart.coor
Info: SUMMARY OF PARAMETERS:
Info: 231 BONDS
Info: 615 ANGLES
Info: 936 DIHEDRAL
Info: 55 IMPROPER
Info: 6 CROSSTERM
Info: 152 VDW
Info: 0 VDW_PAIRS
Info: 0 NBTHOLE_PAIRS
Info: STRUCTURE SUMMARY:
Info: 174063 ATOMS
Info: 138305 BONDS
Info: 164367 ANGLES
Info: 179819 DIHEDRALS
Info: 2052 IMPROPERS
Info: 0 CROSSTERMS
Info: 0 EXCLUSIONS
Info: 1846 CONSTRAINTS
Info: 146402 RIGID BONDS
Info: 375787 DEGREES OF FREEDOM
Info: 62931 HYDROGEN GROUPS
Info: 4 ATOMS IN LARGEST HYDROGEN GROUP
Info: 62931 MIGRATION GROUPS
Info: 4 ATOMS IN LARGEST MIGRATION GROUP
Info: TOTAL MASS = 1.03996e+06 amu
Info: TOTAL CHARGE = 4.77266e-05 e
Info: MASS DENSITY = 0.999186 g/cm^3
Info: ATOM DENSITY = 0.100711 atoms/A^3
Info: REMOVING COM VELOCITY 0.0103786 0.0265554 0.00845478
Info: NONBONDED TABLE R-SQUARED SPACING: 0.0625
Info: NONBONDED TABLE SIZE: 769 POINTS
TCL: Running for 250000 steps
ETITLE: TS BOND ANGLE DIHED IMPRP ELECT VDW BOUNDARY MISC KINETIC TOTAL TEMP POTENTIAL TOTAL3 TEMPAVG PRESSURE GPRESSURE VOLUME PRESSAVG GPRESSAVG
ENERGY: 0 7970.8697 40267.6435 27785.1478 496.1315 -448282.9804 14293.7815 272.2861 0.0000 115647.6286 -241549.4916 309.7315 -357197.1202 -241254.4012 309.7315 -13416.1945 -75.6770 1728333.9232 -13416.1945 -75.6770
ENERGY: 50000 7978.0061 40096.9516 27637.7012 494.6209 -447249.5708 13011.7243 256.6689 0.0000 115718.5831 -242055.3148 309.9215 -357773.8980 -241766.2033 310.1699 -13472.8412 -5.0252 1701271.1303 1.0598 1.0428
ENERGY: 100000 8098.8387 39915.6158 27696.2055 502.9651 -446801.4910 12614.9467 262.6084 0.0000 115317.5214 -242392.7894 308.8474 -357710.3108 -242087.1445 309.9672 -13442.6238 13.5347 1699557.1666 1.6093 1.5449
ENERGY: 150000 7967.6091 40217.1603 27685.5608 502.8457 -446424.2253 11950.6092 269.6626 0.0000 115645.2221 -242185.5555 309.7250 -357830.7776 -241888.8955 309.7509 -13502.5305 -38.9646 1698051.0229 2.9133 2.9158
ENERGY: 200000 8073.8263 39979.2367 27522.9042 514.5833 -447215.1395 12414.8707 259.2460 0.0000 115668.4983 -242781.9740 309.7874 -358450.4723 -242508.1161 310.0161 -13588.2065 -93.0743 1697536.3634 0.6396 0.6422
ENERGY: 250000 7941.4979 40224.9414 27561.7540 495.3161 -446947.1444 12321.0313 257.2251 0.0000 115084.5624 -243060.8163 308.2235 -358145.3786 -242774.3136 309.7228 -13369.3112 103.0763 1697472.4609 -2.2146 -2.2709
