Info: SIMULATION PARAMETERS:
Info: TIMESTEP               1
Info: NUMBER OF STEPS        0
Info: STEPS PER CYCLE        20
Info: PERIODIC CELL BASIS 1  125.666 0 0
Info: PERIODIC CELL BASIS 2  0 126.792 0
Info: PERIODIC CELL BASIS 3  0 0 107.705
Info: PERIODIC CELL CENTER   -0.405 0.185 1.712
Info: WRAPPING ALL CLUSTERS AROUND PERIODIC BOUNDARIES ON OUTPUT.
Info: FIRST LDB TIMESTEP     100
Info: LAST LDB TIMESTEP     -1
Info: HOM BACKGROUND SCALING 1
Info: PME BACKGROUND SCALING 1
Info: REMOVING PATCHES FROM PROCESSOR 0
Info: MIN ATOMS PER PATCH    40
Info: VELOCITY FILE          ../phase2a/dat_equil_phase2a1.restart.vel
Info: CENTER OF MASS MOVING INITIALLY? NO
Info: DIELECTRIC             1
Info: EXCLUDE                SCALED ONE-FOUR
Info: 1-4 ELECTROSTATICS SCALED BY 1
Info: MODIFIED 1-4 VDW PARAMETERS WILL BE USED
Info: DCD FILENAME           ./dat_equil_phase2a2.np.dcd
Info: DCD FREQUENCY          5000
Info: DCD FIRST STEP         5000
Info: DCD FILE WILL CONTAIN UNIT CELL DATA
Info: XST FILENAME           ./dat_equil_phase2a2.np.xst
Info: XST FREQUENCY          5000
Info: NO VELOCITY DCD OUTPUT
Info: NO FORCE DCD OUTPUT
Info: OUTPUT FILENAME        ./dat_equil_phase2a2.np
Info: RESTART FILENAME       ./dat_equil_phase2a2.np.restart
Info: RESTART FREQUENCY      5000
Info: BINARY RESTART FILES WILL BE USED
Info: SWITCHING ACTIVE
Info: SWITCHING ON           10
Info: SWITCHING OFF          12
Info: PAIRLIST DISTANCE      13.5
Info: PAIRLIST SHRINK RATE   0.01
Info: PAIRLIST GROW RATE     0.01
Info: PAIRLIST TRIGGER       0.3
Info: PAIRLISTS PER CYCLE    2
Info: PAIRLISTS ENABLED
Info: MARGIN                 2.5
Info: HYDROGEN GROUP CUTOFF  2.5
Info: PATCH DIMENSION        18.5
Info: ENERGY OUTPUT STEPS    5000
Info: CROSSTERM ENERGY INCLUDED IN DIHEDRAL
Info: TIMING OUTPUT STEPS    5000
Info: PRESSURE OUTPUT STEPS  5000
Info: HARMONIC CONSTRAINTS ACTIVE
Info: HARMONIC CONS EXP      2
Info: LANGEVIN DYNAMICS ACTIVE
Info: LANGEVIN TEMPERATURE   310
Info: LANGEVIN DAMPING COEFFICIENT IS 5 INVERSE PS
Info: LANGEVIN DYNAMICS NOT APPLIED TO HYDROGENS
Info: LANGEVIN PISTON PRESSURE CONTROL ACTIVE
Info:        TARGET PRESSURE IS 1.01325 BAR
Info:     OSCILLATION PERIOD IS 200 FS
Info:             DECAY TIME IS 50 FS
Info:     PISTON TEMPERATURE IS 310 K
Info:       PRESSURE CONTROL IS GROUP-BASED
Info:    INITIAL STRAIN RATE IS -7.69683e-06 -7.69683e-06 -1.76419e-06
Info:       CELL FLUCTUATION IS ANISOTROPIC
Info:     SHAPE OF CELL IS CONSTRAINED IN X-Y PLANE
Info: PARTICLE MESH EWALD (PME) ACTIVE
Info: PME TOLERANCE               1e-06
Info: PME EWALD COEFFICIENT       0.257952
Info: PME INTERPOLATION ORDER     4
Info: PME GRID DIMENSIONS         128 128 108
Info: PME MAXIMUM GRID SPACING    1
Info: FULL ELECTROSTATIC EVALUATION FREQUENCY      4
Info: USING VERLET I (r-RESPA) MTS SCHEME.
Info: C1 SPLITTING OF LONG RANGE ELECTROSTATICS
Info: PLACING ATOMS IN PATCHES BY HYDROGEN GROUPS
Info: RIGID BONDS TO HYDROGEN : ALL
Info:         ERROR TOLERANCE : 1e-08
Info:          MAX ITERATIONS : 100
Info: RIGID WATER USING SETTLE ALGORITHM
Info: NONBONDED FORCES EVALUATED EVERY 2 STEPS
Info: RANDOM NUMBER SEED     1404178014
Info: USE HYDROGEN BONDS?    NO
Info: COORDINATE PDB         ../phase2a/dat_equil_phase2a1.coor
Info: STRUCTURE FILE         ../common/ionized.psf
Info: PARAMETER file: CHARMM format!
Info: PARAMETERS             ../common/parameters_all.prm
Info: USING ARITHMETIC MEAN TO COMBINE L-J SIGMA PARAMETERS
Info: BINARY COORDINATES     ../phase2a/dat_equil_phase2a1.restart.coor
Info: SUMMARY OF PARAMETERS:
Info: 231 BONDS
Info: 615 ANGLES
Info: 936 DIHEDRAL
Info: 55 IMPROPER
Info: 6 CROSSTERM
Info: 152 VDW
Info: 0 VDW_PAIRS
Info: 0 NBTHOLE_PAIRS
Info: STRUCTURE SUMMARY:
Info: 174063 ATOMS
Info: 138305 BONDS
Info: 164367 ANGLES
Info: 179819 DIHEDRALS
Info: 2052 IMPROPERS
Info: 0 CROSSTERMS
Info: 0 EXCLUSIONS
Info: 1846 CONSTRAINTS
Info: 146402 RIGID BONDS
Info: 375787 DEGREES OF FREEDOM
Info: 62931 HYDROGEN GROUPS
Info: 4 ATOMS IN LARGEST HYDROGEN GROUP
Info: 62931 MIGRATION GROUPS
Info: 4 ATOMS IN LARGEST MIGRATION GROUP
Info: TOTAL MASS = 1.03996e+06 amu
Info: TOTAL CHARGE = 4.77266e-05 e
Info: MASS DENSITY = 1.0063 g/cm^3
Info: ATOM DENSITY = 0.101429 atoms/A^3
Info: REMOVING COM VELOCITY -0.0135132 0.00502775 -0.00179453
Info: NONBONDED TABLE R-SQUARED SPACING: 0.0625
Info: NONBONDED TABLE SIZE: 769 POINTS
TCL: Running for 250000 steps
ETITLE: TS BOND ANGLE DIHED IMPRP ELECT VDW BOUNDARY MISC KINETIC TOTAL TEMP POTENTIAL TOTAL3 TEMPAVG PRESSURE GPRESSURE VOLUME PRESSAVG GPRESSAVG
ENERGY: 0 8041.8326 40477.0996 27797.8061 503.6017 -446763.6643 13400.3100 254.1730 0.0000 115274.8628 -241013.9786 308.7331 -356288.8414 -240717.6786 308.7331 -13449.1466 -99.5371 1716111.5292 -13449.1466 -99.5371
ENERGY: 50000 7949.6658 40539.7921 27591.1564 518.9533 -446794.8669 12505.3284 246.3067 0.0000 115292.9054 -242150.7588 308.7815 -357443.6641 -241863.1823 309.8261 -13455.7814 1.1940 1698883.3932 -0.7155 -0.7403
ENERGY: 100000 7938.9723 40367.2292 27684.5544 505.8439 -447693.7401 12818.0413 238.5224 0.0000 115262.6308 -242877.9459 308.7004 -358140.5767 -242590.2617 310.1603 -13617.2647 -109.9327 1699948.5699 1.8605 1.8465
ENERGY: 150000 8062.3757 40207.8031 27626.0519 535.0669 -447169.8320 12575.0537 259.4070 0.0000 115272.4650 -242631.6087 308.7267 -357904.0737 -242352.5342 309.6476 -13619.1383 -174.1353 1703160.1210 1.5369 1.5132
ENERGY: 200000 7911.2391 40164.1209 27606.7479 504.5219 -446725.9389 12609.7889 252.4202 0.0000 115169.0529 -242508.0471 308.4498 -357677.1000 -242209.2202 309.8125 -13509.9234 -72.2958 1700757.1249 0.6600 0.5985
ENERGY: 250000 7972.0705 40315.2250 27730.2357 512.5149 -447480.8265 13002.9638 251.7014 0.0000 115464.1017 -242232.0134 309.2400 -357696.1151 -241934.0291 309.9874 -13432.1965 63.7646 1698597.7554 -0.1922 -0.1658
