Info: SIMULATION PARAMETERS:
Info: TIMESTEP               1
Info: NUMBER OF STEPS        0
Info: STEPS PER CYCLE        20
Info: PERIODIC CELL BASIS 1  127.991 0 0
Info: PERIODIC CELL BASIS 2  0 129.137 0
Info: PERIODIC CELL BASIS 3  0 0 103.077
Info: PERIODIC CELL CENTER   -0.405 0.185 1.712
Info: WRAPPING ALL CLUSTERS AROUND PERIODIC BOUNDARIES ON OUTPUT.
Info: FIRST LDB TIMESTEP     100
Info: LAST LDB TIMESTEP     -1
Info: HOM BACKGROUND SCALING 1
Info: PME BACKGROUND SCALING 1
Info: REMOVING PATCHES FROM PROCESSOR 0
Info: MIN ATOMS PER PATCH    40
Info: VELOCITY FILE          ../phase1c/dat_phase1c.vel
Info: CENTER OF MASS MOVING INITIALLY? NO
Info: DIELECTRIC             1
Info: EXCLUDE                SCALED ONE-FOUR
Info: 1-4 ELECTROSTATICS SCALED BY 1
Info: MODIFIED 1-4 VDW PARAMETERS WILL BE USED
Info: DCD FILENAME           ./dat_equil_phase2a1.np.dcd
Info: DCD FREQUENCY          5000
Info: DCD FIRST STEP         5000
Info: DCD FILE WILL CONTAIN UNIT CELL DATA
Info: XST FILENAME           ./dat_equil_phase2a1.np.xst
Info: XST FREQUENCY          5000
Info: NO VELOCITY DCD OUTPUT
Info: NO FORCE DCD OUTPUT
Info: OUTPUT FILENAME        ./dat_equil_phase2a1.np
Info: RESTART FILENAME       ./dat_equil_phase2a1.np.restart
Info: RESTART FREQUENCY      5000
Info: BINARY RESTART FILES WILL BE USED
Info: SWITCHING ACTIVE
Info: SWITCHING ON           10
Info: SWITCHING OFF          12
Info: PAIRLIST DISTANCE      13.5
Info: PAIRLIST SHRINK RATE   0.01
Info: PAIRLIST GROW RATE     0.01
Info: PAIRLIST TRIGGER       0.3
Info: PAIRLISTS PER CYCLE    2
Info: PAIRLISTS ENABLED
Info: MARGIN                 1.5
Info: HYDROGEN GROUP CUTOFF  2.5
Info: PATCH DIMENSION        17.5
Info: ENERGY OUTPUT STEPS    5000
Info: CROSSTERM ENERGY INCLUDED IN DIHEDRAL
Info: TIMING OUTPUT STEPS    5000
Info: PRESSURE OUTPUT STEPS  5000
Info: HARMONIC CONSTRAINTS ACTIVE
Info: HARMONIC CONS EXP      2
Info: LANGEVIN DYNAMICS ACTIVE
Info: LANGEVIN TEMPERATURE   310
Info: LANGEVIN DAMPING COEFFICIENT IS 5 INVERSE PS
Info: LANGEVIN DYNAMICS NOT APPLIED TO HYDROGENS
Info: LANGEVIN PISTON PRESSURE CONTROL ACTIVE
Info:        TARGET PRESSURE IS 1.01325 BAR
Info:     OSCILLATION PERIOD IS 200 FS
Info:             DECAY TIME IS 50 FS
Info:     PISTON TEMPERATURE IS 310 K
Info:       PRESSURE CONTROL IS GROUP-BASED
Info:    INITIAL STRAIN RATE IS -6.56756e-06 -6.56756e-06 2.99071e-05
Info:       CELL FLUCTUATION IS ANISOTROPIC
Info:     SHAPE OF CELL IS CONSTRAINED IN X-Y PLANE
Info: PARTICLE MESH EWALD (PME) ACTIVE
Info: PME TOLERANCE               1e-06
Info: PME EWALD COEFFICIENT       0.257952
Info: PME INTERPOLATION ORDER     4
Info: PME GRID DIMENSIONS         128 132 108
Info: PME MAXIMUM GRID SPACING    1
Info: FULL ELECTROSTATIC EVALUATION FREQUENCY      4
Info: USING VERLET I (r-RESPA) MTS SCHEME.
Info: C1 SPLITTING OF LONG RANGE ELECTROSTATICS
Info: PLACING ATOMS IN PATCHES BY HYDROGEN GROUPS
Info: RIGID BONDS TO HYDROGEN : ALL
Info:         ERROR TOLERANCE : 1e-08
Info:          MAX ITERATIONS : 100
Info: RIGID WATER USING SETTLE ALGORITHM
Info: NONBONDED FORCES EVALUATED EVERY 2 STEPS
Info: RANDOM NUMBER SEED     1404171030
Info: USE HYDROGEN BONDS?    NO
Info: COORDINATE PDB         ../phase1c/dat_phase1c.coor
Info: STRUCTURE FILE         ../common/ionized.psf
Info: PARAMETER file: CHARMM format!
Info: PARAMETERS             ../common/parameters_all.prm
Info: USING ARITHMETIC MEAN TO COMBINE L-J SIGMA PARAMETERS
Info: SUMMARY OF PARAMETERS:
Info: 231 BONDS
Info: 615 ANGLES
Info: 936 DIHEDRAL
Info: 55 IMPROPER
Info: 6 CROSSTERM
Info: 152 VDW
Info: 0 VDW_PAIRS
Info: 0 NBTHOLE_PAIRS
Info: STRUCTURE SUMMARY:
Info: 174063 ATOMS
Info: 138305 BONDS
Info: 164367 ANGLES
Info: 179819 DIHEDRALS
Info: 2052 IMPROPERS
Info: 0 CROSSTERMS
Info: 0 EXCLUSIONS
Info: 1846 CONSTRAINTS
Info: 146402 RIGID BONDS
Info: 375787 DEGREES OF FREEDOM
Info: 62931 HYDROGEN GROUPS
Info: 4 ATOMS IN LARGEST HYDROGEN GROUP
Info: 62931 MIGRATION GROUPS
Info: 4 ATOMS IN LARGEST MIGRATION GROUP
Info: TOTAL MASS = 1.03996e+06 amu
Info: TOTAL CHARGE = 4.77266e-05 e
Info: MASS DENSITY = 1.01364 g/cm^3
Info: ATOM DENSITY = 0.102168 atoms/A^3
Info: REMOVING COM VELOCITY -0.0202195 0.0018469 -0.0071789
Info: NONBONDED TABLE R-SQUARED SPACING: 0.0625
Info: NONBONDED TABLE SIZE: 769 POINTS
TCL: Minimizing for 2500 steps
ETITLE: TS BOND ANGLE DIHED IMPRP ELECT VDW BOUNDARY MISC KINETIC TOTAL TEMP POTENTIAL TOTAL3 TEMPAVG PRESSURE GPRESSURE VOLUME PRESSAVG GPRESSAVG
ENERGY: 0 7751.8067 40000.8841 27988.3690 360.7631 -446406.8330 14201.4002 0.0000 0.0000 0.0000 -356103.6099 0.0000 -356103.6099 -356103.6099 0.0000 12453.7157 -1172.7125 1703695.1828 12453.7157 -1172.7125
ENERGY: 500 17174.3542 19749.7984 23188.1857 63.1947 -597133.4252 28809.9384 99.5799 0.0000 0.0000 -508048.3739 0.0000 -508048.3739 -508048.3739 0.0000 -5316.5977 -5201.9633 1703695.1828 -5316.5977 -5201.9633
ENERGY: 1000 17438.4109 19745.1509 22840.6517 59.9800 -610151.2379 33810.6296 109.0575 0.0000 0.0000 -516147.3573 0.0000 -516147.3573 -516147.3573 0.0000 -4806.7706 -4847.5342 1703695.1828 -4806.7706 -4847.5342
ENERGY: 1500 17796.0308 19744.5932 22721.2806 59.3281 -615435.0999 36119.1876 116.8149 0.0000 0.0000 -518877.8646 0.0000 -518877.8646 -518877.8646 0.0000 -4619.6911 -4607.1370 1703695.1828 -4619.6911 -4607.1370
ENERGY: 2000 17870.5707 19775.4165 22677.4762 59.4004 -618153.2973 37380.8539 118.3304 0.0000 0.0000 -520271.2492 0.0000 -520271.2492 -520271.2492 0.0000 -4449.4244 -4469.2786 1703695.1828 -4449.4244 -4469.2786
ENERGY: 2500 18010.8204 19803.1352 22647.3279 58.9846 -620213.3876 38350.4659 117.6413 0.0000 0.0000 -521225.0122 0.0000 -521225.0122 -521225.0122 0.0000 -4361.3311 -4351.4990 1703695.1828 -4361.3311 -4351.4990
TCL: Running for 250000 steps
ETITLE: TS BOND ANGLE DIHED IMPRP ELECT VDW BOUNDARY MISC KINETIC TOTAL TEMP POTENTIAL TOTAL3 TEMPAVG PRESSURE GPRESSURE VOLUME PRESSAVG GPRESSAVG
ENERGY: 5000 7955.0898 39629.5720 27854.6886 514.0471 -454028.3915 14632.3627 227.4003 0.0000 111873.6574 -251341.5736 299.6239 -363215.2310 -251057.4549 266.1737 -13777.4848 -17.8619 1699891.9815 -6.9538 -1.3558
ENERGY: 55000 8051.9789 40522.3658 27695.3459 501.6546 -447201.0575 12829.8720 238.5967 0.0000 114753.8476 -242607.3959 307.3377 -357361.2435 -242308.3865 309.6135 -13497.7844 -9.5517 1701043.5026 -0.8435 -0.8875
ENERGY: 105000 8129.7180 40132.2018 27710.1952 509.6458 -446434.0671 12268.6250 226.4961 0.0000 115131.8369 -242325.3481 308.3501 -357457.1851 -242044.1846 310.2967 -13704.8497 -249.1687 1699801.0655 -1.3108 -1.3111
ENERGY: 150000 8052.7999 40300.8151 27779.3870 496.3205 -447597.4935 12883.8825 236.9431 0.0000 115928.4856 -241918.8600 310.4837 -357847.3456 -241620.1641 310.0846 -13420.7103 91.0015 1695510.4660 2.8658 2.9529
ENERGY: 200000 8068.2051 40321.8830 27691.1928 488.9566 -446928.3370 12316.2914 254.0298 0.0000 115566.3451 -242221.4331 309.5138 -357787.7783 -241923.3448 309.6933 -13455.4644 17.1084 1696769.4576 2.5497 2.4644
ENERGY: 250000 8177.3655 40106.5511 27674.6136 514.9009 -447259.3059 12981.4252 250.2695 0.0000 115541.2283 -242012.9518 309.4465 -357554.1801 -241709.0651 309.7118 -13483.1351 -36.6302 1700594.6900 0.2998 0.2828
