Info: SIMULATION PARAMETERS:
Info: TIMESTEP               2
Info: NUMBER OF STEPS        0
Info: STEPS PER CYCLE        12
Info: PERIODIC CELL BASIS 1  129.553 0 0
Info: PERIODIC CELL BASIS 2  0 135.004 0
Info: PERIODIC CELL BASIS 3  0 0 125.115
Info: PERIODIC CELL CENTER   39.571 42.926 -0.222
Info: WRAPPING ALL CLUSTERS AROUND PERIODIC BOUNDARIES ON OUTPUT.
Info: FIRST LDB TIMESTEP     60
Info: LAST LDB TIMESTEP     -1
Info: HOM BACKGROUND SCALING 1
Info: PME BACKGROUND SCALING 1
Info: REMOVING PATCHES FROM PROCESSOR 0
Info: MIN ATOMS PER PATCH    40
Info: VELOCITY FILE          /global/u1/j/jmedina/Pathrover/3tt1/phase2b/dat_phase2b3.vel
Info: CENTER OF MASS MOVING INITIALLY? NO
Info: DIELECTRIC             1
Info: EXCLUDE                SCALED ONE-FOUR
Info: 1-4 ELECTROSTATICS SCALED BY 1
Info: MODIFIED 1-4 VDW PARAMETERS WILL BE USED
Info: DCD FILENAME           ./dat_phase3_9.dcd
Info: DCD FREQUENCY          10000
Info: DCD FIRST STEP         10000
Info: DCD FILE WILL CONTAIN UNIT CELL DATA
Info: XST FILENAME           ./dat_phase3_9.xst
Info: XST FREQUENCY          10000
Info: NO VELOCITY DCD OUTPUT
Info: NO FORCE DCD OUTPUT
Info: OUTPUT FILENAME        ./dat_phase3_9
Info: RESTART FILENAME       ./dat_phase3_9.restart
Info: RESTART FREQUENCY      10000
Info: BINARY RESTART FILES WILL BE USED
Info: SWITCHING ACTIVE
Info: SWITCHING ON           10
Info: SWITCHING OFF          12
Info: PAIRLIST DISTANCE      13.5
Info: PAIRLIST SHRINK RATE   0.01
Info: PAIRLIST GROW RATE     0.01
Info: PAIRLIST TRIGGER       0.3
Info: PAIRLISTS PER CYCLE    2
Info: PAIRLISTS ENABLED
Info: MARGIN                 1.5
Info: HYDROGEN GROUP CUTOFF  2.5
Info: PATCH DIMENSION        17.5
Info: ENERGY OUTPUT STEPS    30000
Info: CROSSTERM ENERGY INCLUDED IN DIHEDRAL
Info: TIMING OUTPUT STEPS    10000
Info: PRESSURE OUTPUT STEPS  10000
Info: LANGEVIN DYNAMICS ACTIVE
Info: LANGEVIN TEMPERATURE   310
Info: LANGEVIN DAMPING COEFFICIENT IS 5 INVERSE PS
Info: LANGEVIN DYNAMICS NOT APPLIED TO HYDROGENS
Info: LANGEVIN PISTON PRESSURE CONTROL ACTIVE
Info:        TARGET PRESSURE IS 1.01325 BAR
Info:     OSCILLATION PERIOD IS 200 FS
Info:             DECAY TIME IS 50 FS
Info:     PISTON TEMPERATURE IS 310 K
Info:       PRESSURE CONTROL IS GROUP-BASED
Info:    INITIAL STRAIN RATE IS -2.98727e-05 -2.98727e-05 3.18162e-05
Info:       CELL FLUCTUATION IS ANISOTROPIC
Info:     SHAPE OF CELL IS CONSTRAINED IN X-Y PLANE
Info: PARTICLE MESH EWALD (PME) ACTIVE
Info: PME TOLERANCE               1e-06
Info: PME EWALD COEFFICIENT       0.257952
Info: PME INTERPOLATION ORDER     4
Info: PME GRID DIMENSIONS         132 144 128
Info: PME MAXIMUM GRID SPACING    1
Info: FULL ELECTROSTATIC EVALUATION FREQUENCY      3
Info: USING VERLET I (r-RESPA) MTS SCHEME.
Info: C1 SPLITTING OF LONG RANGE ELECTROSTATICS
Info: PLACING ATOMS IN PATCHES BY HYDROGEN GROUPS
Info: RIGID BONDS TO HYDROGEN : ALL
Info:         ERROR TOLERANCE : 1e-08
Info:          MAX ITERATIONS : 100
Info: RIGID WATER USING SETTLE ALGORITHM
Info: RANDOM NUMBER SEED     1403134370
Info: USE HYDROGEN BONDS?    NO
Info: COORDINATE PDB         /global/u1/j/jmedina/Pathrover/3tt1/phase2b/dat_phase2b3.coor
Info: STRUCTURE FILE         /global/u1/j/jmedina/Pathrover/3tt1/common/ionized.psf
Info: PARAMETER file: CHARMM format!
Info: PARAMETERS             /global/u1/j/jmedina/Pathrover/3tt1/common/parameters_all.prm
Info: USING ARITHMETIC MEAN TO COMBINE L-J SIGMA PARAMETERS
Info: BINARY COORDINATES     /global/u1/j/jmedina/Pathrover/3tt1/phase3/dat_phase3_8.restart.coor
Info: SUMMARY OF PARAMETERS:
Info: 231 BONDS
Info: 615 ANGLES
Info: 936 DIHEDRAL
Info: 55 IMPROPER
Info: 6 CROSSTERM
Info: 152 VDW
Info: 0 VDW_PAIRS
Info: 0 NBTHOLE_PAIRS
Info: STRUCTURE SUMMARY:
Info: 223945 ATOMS
Info: 174173 BONDS
Info: 193453 ANGLES
Info: 201079 DIHEDRALS
Info: 2283 IMPROPERS
Info: 0 CROSSTERMS
Info: 0 EXCLUSIONS
Info: 192958 RIGID BONDS
Info: 478877 DEGREES OF FREEDOM
Info: 80205 HYDROGEN GROUPS
Info: 4 ATOMS IN LARGEST HYDROGEN GROUP
Info: 80205 MIGRATION GROUPS
Info: 4 ATOMS IN LARGEST MIGRATION GROUP
Info: TOTAL MASS = 1.33978e+06 amu
Info: TOTAL CHARGE = 5.37336e-05 e
Info: MASS DENSITY = 1.01669 g/cm^3
Info: ATOM DENSITY = 0.102338 atoms/A^3
Info: REMOVING COM VELOCITY -0.00716191 0.00367095 -0.00806892
Info: NONBONDED TABLE R-SQUARED SPACING: 0.0625
Info: NONBONDED TABLE SIZE: 769 POINTS
TCL: Running for 10200000 steps
ETITLE: TS BOND ANGLE DIHED IMPRP ELECT VDW BOUNDARY MISC KINETIC TOTAL TEMP POTENTIAL TOTAL3 TEMPAVG PRESSURE GPRESSURE VOLUME PRESSAVG GPRESSAVG
ENERGY: 0 9253.4957 45954.9282 30717.1777 595.3134 -607353.7831 24225.6631 0.0000 0.0000 116122.5925 -380484.6126 244.0524 -496607.2051 -379621.1791 244.0524 -37.7169 0.3822 2188283.0214 -37.7169 0.3822
ENERGY: 750000 9283.1913 45963.9310 30620.6045 590.5575 -607252.9070 23617.3476 0.0000 0.0000 146595.5363 -350581.7389 308.0968 -497177.2752 -349710.6760 309.3584 -139.0553 -102.9959 2187087.8415 0.6027 0.5898
ENERGY: 1500000 9234.8992 45818.9526 30604.9837 585.9847 -606707.3179 23479.0269 0.0000 0.0000 147271.2247 -349712.2462 309.5169 -496983.4708 -348861.1785 309.3401 -223.3796 -179.6062 2187180.5219 0.7473 0.7480
ENERGY: 2280000 9178.3552 46077.8635 30685.3918 580.0842 -607026.9226 24530.7418 0.0000 0.0000 146343.7204 -349630.7658 307.5675 -495974.4862 -348803.2991 309.3687 23.2399 61.5459 2191273.2772 0.9016 0.9045
ENERGY: 3030000 9351.5901 45833.4865 30539.9215 567.3624 -607594.1310 24385.0244 0.0000 0.0000 147880.6080 -349036.1381 310.7976 -496916.7461 -348124.3753 309.2953 -104.7577 -61.2596 2191900.7888 1.0964 1.1000
ENERGY: 3780000 9298.9102 45881.6185 30578.5064 564.2270 -607761.2363 24176.0942 0.0000 0.0000 147352.9744 -349908.9056 309.6887 -497261.8800 -348988.3709 309.1928 -147.2719 -109.8460 2189425.8305 0.9700 0.9613
