Info: SIMULATION PARAMETERS:
Info: TIMESTEP               2
Info: NUMBER OF STEPS        0
Info: STEPS PER CYCLE        12
Info: PERIODIC CELL BASIS 1  145.781 0 0
Info: PERIODIC CELL BASIS 2  0 147.572 0
Info: PERIODIC CELL BASIS 3  0 0 105.109
Info: PERIODIC CELL CENTER   39.761 40.384 -1.088
Info: WRAPPING ALL CLUSTERS AROUND PERIODIC BOUNDARIES ON OUTPUT.
Info: FIRST LDB TIMESTEP     60
Info: LAST LDB TIMESTEP     -1
Info: HOM BACKGROUND SCALING 1
Info: PME BACKGROUND SCALING 1
Info: REMOVING PATCHES FROM PROCESSOR 0
Info: MIN ATOMS PER PATCH    40
Info: VELOCITY FILE          ../phase2b/dat_phase2b3.vel
Info: CENTER OF MASS MOVING INITIALLY? NO
Info: DIELECTRIC             1
Info: EXCLUDE                SCALED ONE-FOUR
Info: 1-4 ELECTROSTATICS SCALED BY 1
Info: MODIFIED 1-4 VDW PARAMETERS WILL BE USED
Info: DCD FILENAME           ./dat_phase3_02.dcd
Info: DCD FREQUENCY          10000
Info: DCD FIRST STEP         10000
Info: DCD FILE WILL CONTAIN UNIT CELL DATA
Info: XST FILENAME           ./dat_phase3_02.xst
Info: XST FREQUENCY          10000
Info: NO VELOCITY DCD OUTPUT
Info: NO FORCE DCD OUTPUT
Info: OUTPUT FILENAME        ./dat_phase3_02
Info: RESTART FILENAME       ./dat_phase3_02.restart
Info: RESTART FREQUENCY      10000
Info: BINARY RESTART FILES WILL BE USED
Info: SWITCHING ACTIVE
Info: SWITCHING ON           10
Info: SWITCHING OFF          12
Info: PAIRLIST DISTANCE      13.5
Info: PAIRLIST SHRINK RATE   0.01
Info: PAIRLIST GROW RATE     0.01
Info: PAIRLIST TRIGGER       0.3
Info: PAIRLISTS PER CYCLE    2
Info: PAIRLISTS ENABLED
Info: MARGIN                 1.5
Info: HYDROGEN GROUP CUTOFF  2.5
Info: PATCH DIMENSION        17.5
Info: ENERGY OUTPUT STEPS    30000
Info: CROSSTERM ENERGY INCLUDED IN DIHEDRAL
Info: TIMING OUTPUT STEPS    10000
Info: PRESSURE OUTPUT STEPS  10000
Info: LANGEVIN DYNAMICS ACTIVE
Info: LANGEVIN TEMPERATURE   310
Info: LANGEVIN DAMPING COEFFICIENT IS 5 INVERSE PS
Info: LANGEVIN DYNAMICS NOT APPLIED TO HYDROGENS
Info: LANGEVIN PISTON PRESSURE CONTROL ACTIVE
Info:        TARGET PRESSURE IS 1.01325 BAR
Info:     OSCILLATION PERIOD IS 200 FS
Info:             DECAY TIME IS 50 FS
Info:     PISTON TEMPERATURE IS 310 K
Info:       PRESSURE CONTROL IS GROUP-BASED
Info:    INITIAL STRAIN RATE IS 2.70847e-05 2.70847e-05 -3.11499e-05
Info:       CELL FLUCTUATION IS ANISOTROPIC
Info:     SHAPE OF CELL IS CONSTRAINED IN X-Y PLANE
Info: PARTICLE MESH EWALD (PME) ACTIVE
Info: PME TOLERANCE               1e-06
Info: PME EWALD COEFFICIENT       0.257952
Info: PME INTERPOLATION ORDER     4
Info: PME GRID DIMENSIONS         160 160 108
Info: PME MAXIMUM GRID SPACING    1
Info: FULL ELECTROSTATIC EVALUATION FREQUENCY      3
Info: USING VERLET I (r-RESPA) MTS SCHEME.
Info: C1 SPLITTING OF LONG RANGE ELECTROSTATICS
Info: PLACING ATOMS IN PATCHES BY HYDROGEN GROUPS
Info: RIGID BONDS TO HYDROGEN : ALL
Info:         ERROR TOLERANCE : 1e-08
Info:          MAX ITERATIONS : 100
Info: RIGID WATER USING SETTLE ALGORITHM
Info: RANDOM NUMBER SEED     1407266901
Info: USE HYDROGEN BONDS?    NO
Info: COORDINATE PDB         ../phase2b/dat_phase2b3.coor
Info: STRUCTURE FILE         ../common/ionized.psf
Info: PARAMETER file: CHARMM format!
Info: PARAMETERS             ../common/parameters_all.prm
Info: USING ARITHMETIC MEAN TO COMBINE L-J SIGMA PARAMETERS
Info: BINARY COORDINATES     ../phase3/dat_phase3_01.restart.coor
Info: SUMMARY OF PARAMETERS:
Info: 231 BONDS
Info: 615 ANGLES
Info: 936 DIHEDRAL
Info: 55 IMPROPER
Info: 6 CROSSTERM
Info: 152 VDW
Info: 0 VDW_PAIRS
Info: 0 NBTHOLE_PAIRS
Info: STRUCTURE SUMMARY:
Info: 231985 ATOMS
Info: 185243 BONDS
Info: 223663 ANGLES
Info: 247349 DIHEDRALS
Info: 2563 IMPROPERS
Info: 0 CROSSTERMS
Info: 0 EXCLUSIONS
Info: 194058 RIGID BONDS
Info: 501897 DEGREES OF FREEDOM
Info: 83965 HYDROGEN GROUPS
Info: 4 ATOMS IN LARGEST HYDROGEN GROUP
Info: 83965 MIGRATION GROUPS
Info: 4 ATOMS IN LARGEST MIGRATION GROUP
Info: TOTAL MASS = 1.38414e+06 amu
Info: TOTAL CHARGE = -0.999934 e
Info: MASS DENSITY = 1.01647 g/cm^3
Info: ATOM DENSITY = 0.102592 atoms/A^3
Info: REMOVING COM VELOCITY 0.00843112 0.0143808 -0.0216284
Info: NONBONDED TABLE R-SQUARED SPACING: 0.0625
Info: NONBONDED TABLE SIZE: 769 POINTS
TCL: Running for 10200000 steps
ETITLE: TS BOND ANGLE DIHED IMPRP ELECT VDW BOUNDARY MISC KINETIC TOTAL TEMP POTENTIAL TOTAL3 TEMPAVG PRESSURE GPRESSURE VOLUME PRESSAVG GPRESSAVG
ENERGY: 0 11346.3121 56731.0442 37959.4165 648.6864 -589090.0249 14809.5748 0.0000 0.0000 122965.8835 -344629.1075 246.5815 -467594.9910 -343615.9196 246.5815 -155.0711 -127.1287 2261230.2800 -155.0711 -127.1287
ENERGY: 30000 11156.7632 56454.4712 38009.5307 661.1260 -588153.7276 14617.9667 0.0000 0.0000 154286.6244 -312967.2453 309.3884 -467253.8698 -311922.1380 308.9667 -142.9806 -110.9610 2260159.5415 1.9077 1.8795
ENERGY: 60000 11205.7025 56781.0472 38044.2708 687.4643 -588652.7508 14698.0778 0.0000 0.0000 154514.2521 -312721.9360 309.8449 -467236.1881 -311689.8716 309.2437 -70.9458 -32.5603 2260084.4531 0.6304 0.6165
ENERGY: 120000 11329.8249 56802.5860 37970.8523 626.1170 -589531.7889 14681.8823 0.0000 0.0000 154549.8629 -313570.6635 309.9163 -468120.5264 -312552.4897 309.2705 -62.4599 -30.8731 2256491.1842 0.6596 0.6661
ENERGY: 150000 11133.8028 56464.2745 37996.3685 666.4293 -589708.1418 15163.0496 0.0000 0.0000 153725.4928 -314558.7244 308.2632 -468284.2172 -313578.9797 309.2264 31.6820 59.9324 2256285.2305 0.2176 0.2227
ENERGY: 180000 11251.9845 56426.5558 37976.9305 646.4697 -588547.7148 14743.5068 0.0000 0.0000 154382.0297 -313120.2377 309.5797 -467502.2675 -312109.5524 309.2907 -112.2915 -71.2402 2260831.2090 0.9500 0.9259
