Info: SIMULATION PARAMETERS:
Info: TIMESTEP               1
Info: NUMBER OF STEPS        0
Info: STEPS PER CYCLE        20
Info: PERIODIC CELL BASIS 1  156.882 0 0
Info: PERIODIC CELL BASIS 2  0 158.287 0
Info: PERIODIC CELL BASIS 3  0 0 85.594
Info: PERIODIC CELL CENTER   -0.436 0.199 0.879
Info: WRAPPING ALL CLUSTERS AROUND PERIODIC BOUNDARIES ON OUTPUT.
Info: FIRST LDB TIMESTEP     100
Info: LAST LDB TIMESTEP     -1
Info: HOM BACKGROUND SCALING 1
Info: PME BACKGROUND SCALING 1
Info: REMOVING PATCHES FROM PROCESSOR 0
Info: MIN ATOMS PER PATCH    40
Info: INITIAL TEMPERATURE    310
Info: CENTER OF MASS MOVING INITIALLY? NO
Info: DIELECTRIC             1
Info: EXCLUDE                SCALED ONE-FOUR
Info: 1-4 ELECTROSTATICS SCALED BY 1
Info: MODIFIED 1-4 VDW PARAMETERS WILL BE USED
Info: DCD FILENAME           ./dat_phase1.dcd
Info: DCD FREQUENCY          5000
Info: DCD FIRST STEP         5000
Info: DCD FILE WILL CONTAIN UNIT CELL DATA
Info: XST FILENAME           ./dat_phase1.xst
Info: XST FREQUENCY          5000
Info: NO VELOCITY DCD OUTPUT
Info: NO FORCE DCD OUTPUT
Info: OUTPUT FILENAME        ./dat_phase1
Info: RESTART FILENAME       ./dat_phase1.restart
Info: RESTART FREQUENCY      5000
Info: BINARY RESTART FILES WILL BE USED
Info: SWITCHING ACTIVE
Info: SWITCHING ON           10
Info: SWITCHING OFF          12
Info: PAIRLIST DISTANCE      13.5
Info: PAIRLIST SHRINK RATE   0.01
Info: PAIRLIST GROW RATE     0.01
Info: PAIRLIST TRIGGER       0.3
Info: PAIRLISTS PER CYCLE    2
Info: PAIRLISTS ENABLED
Info: MARGIN                 1.5
Info: HYDROGEN GROUP CUTOFF  2.5
Info: PATCH DIMENSION        17.5
Info: ENERGY OUTPUT STEPS    5000
Info: CROSSTERM ENERGY INCLUDED IN DIHEDRAL
Info: TIMING OUTPUT STEPS    5000
Info: PRESSURE OUTPUT STEPS  5000
Info: FIXED ATOMS ACTIVE
Info: LANGEVIN DYNAMICS ACTIVE
Info: LANGEVIN TEMPERATURE   310
Info: LANGEVIN DAMPING COEFFICIENT IS 5 INVERSE PS
Info: LANGEVIN DYNAMICS NOT APPLIED TO HYDROGENS
Info: PARTICLE MESH EWALD (PME) ACTIVE
Info: PME TOLERANCE               1e-06
Info: PME EWALD COEFFICIENT       0.257952
Info: PME INTERPOLATION ORDER     4
Info: PME GRID DIMENSIONS         160 160 88
Info: PME MAXIMUM GRID SPACING    1
Info: FULL ELECTROSTATIC EVALUATION FREQUENCY      4
Info: USING VERLET I (r-RESPA) MTS SCHEME.
Info: C1 SPLITTING OF LONG RANGE ELECTROSTATICS
Info: PLACING ATOMS IN PATCHES BY HYDROGEN GROUPS
Info: RIGID BONDS TO HYDROGEN : ALL
Info:         ERROR TOLERANCE : 1e-08
Info:          MAX ITERATIONS : 100
Info: RIGID WATER USING SETTLE ALGORITHM
Info: NONBONDED FORCES EVALUATED EVERY 2 STEPS
Info: RANDOM NUMBER SEED     1405124339
Info: USE HYDROGEN BONDS?    NO
Info: COORDINATE PDB         ../common/ionized.pdb
Info: STRUCTURE FILE         ../common/ionized.psf
Info: PARAMETER file: CHARMM format!
Info: PARAMETERS             ../common/parameters_all.prm
Info: USING ARITHMETIC MEAN TO COMBINE L-J SIGMA PARAMETERS
Info: SUMMARY OF PARAMETERS:
Info: 231 BONDS
Info: 615 ANGLES
Info: 936 DIHEDRAL
Info: 55 IMPROPER
Info: 6 CROSSTERM
Info: 152 VDW
Info: 0 VDW_PAIRS
Info: 0 NBTHOLE_PAIRS
Info: STRUCTURE SUMMARY:
Info: 170482 ATOMS
Info: 136083 BONDS
Info: 163960 ANGLES
Info: 181135 DIHEDRALS
Info: 2060 IMPROPERS
Info: 0 CROSSTERMS
Info: 0 EXCLUSIONS
Info: 119032 FIXED ATOMS
Info: 142629 RIGID BONDS
Info: 110289 RIGID BONDS BETWEEN FIXED ATOMS
Info: 122010 DEGREES OF FREEDOM
Info: 61764 HYDROGEN GROUPS
Info: 4 ATOMS IN LARGEST HYDROGEN GROUP
Info: 61764 MIGRATION GROUPS
Info: 4 ATOMS IN LARGEST MIGRATION GROUP
Info: 42654 HYDROGEN GROUPS WITH ALL ATOMS FIXED
Info: TOTAL MASS = 1.01823e+06 amu
Info: TOTAL CHARGE = 4.80842e-05 e
Info: MASS DENSITY = 0.795504 g/cm^3
Info: ATOM DENSITY = 0.0802078 atoms/A^3
Info: REMOVING COM VELOCITY 0.0168905 -0.00800995 -0.00444894
Info: NONBONDED TABLE R-SQUARED SPACING: 0.0625
Info: NONBONDED TABLE SIZE: 769 POINTS
TCL: Minimizing for 5000 steps
ETITLE: TS BOND ANGLE DIHED IMPRP ELECT VDW BOUNDARY MISC KINETIC TOTAL TEMP POTENTIAL TOTAL3 TEMPAVG PRESSURE GPRESSURE VOLUME PRESSAVG GPRESSAVG
ENERGY: 0 5131.4287 28060.2091 22349.4301 279.6058 -1834194.1648 9999999999.9999 0.0000 0.0000 0.0000 9999999999.9999 0.0000 9999999999.9999 9999999999.9999 0.0000 9999999999.9999 9999999999.9999 2125502.7633 9999999999.9999 9999999999.9999
ENERGY: 1000 2051.4820 14041.3808 25552.2923 161.5736 -1833777.3156 -6221.2673 0.0000 0.0000 0.0000 -1798191.8541 0.0000 -1798191.8541 -1798191.8541 0.0000 1947.9339 2052.2943 2125502.7633 1947.9339 2052.2943
ENERGY: 2000 592.5215 6062.6785 21795.0830 115.9051 -1834629.7846 -17010.5658 0.0000 0.0000 0.0000 -1823074.1624 0.0000 -1823074.1624 -1823074.1624 0.0000 172.7782 159.8436 2125502.7633 172.7782 159.8436
ENERGY: 3000 576.7252 5615.5547 20762.9549 100.2263 -1834870.0733 -18066.4169 0.0000 0.0000 0.0000 -1825881.0292 0.0000 -1825881.0292 -1825881.0292 0.0000 17.6785 17.9955 2125502.7633 17.6785 17.9955
ENERGY: 4000 570.8024 5475.6316 20450.0993 97.4606 -1834942.7911 -18440.2601 0.0000 0.0000 0.0000 -1826789.0573 0.0000 -1826789.0573 -1826789.0573 0.0000 35.9263 35.2721 2125502.7633 35.9263 35.2721
ENERGY: 5000 567.0698 5426.2170 20250.6621 94.4070 -1834977.5746 -18649.8428 0.0000 0.0000 0.0000 -1827289.0615 0.0000 -1827289.0615 -1827289.0615 0.0000 19.6145 23.0963 2125502.7633 19.6145 23.0963
TCL: Running for 500000 steps
ETITLE: TS BOND ANGLE DIHED IMPRP ELECT VDW BOUNDARY MISC KINETIC TOTAL TEMP POTENTIAL TOTAL3 TEMPAVG PRESSURE GPRESSURE VOLUME PRESSAVG GPRESSAVG
ENERGY: 5000 518.2482 5464.3459 20251.2013 94.4986 -1834932.4252 -18625.0119 0.0000 0.0000 37518.8744 -1789710.2689 309.4887 -1827229.1433 -1789724.8183 309.4887 328.4344 425.1396 2125502.7633 328.4344 425.1396
ENERGY: 105000 5276.0918 29563.5999 23379.3890 322.6408 -1835859.4134 -15952.0834 0.0000 0.0000 37573.1102 -1755696.6651 309.9361 -1793269.7753 -1755509.2534 309.7385 -271.3038 -184.6122 2125502.7633 72.9331 72.4683
ENERGY: 205000 5297.7821 29311.1101 23325.4903 306.4082 -1836044.6573 -16192.4651 0.0000 0.0000 37530.1760 -1756466.1558 309.5819 -1793996.3318 -1756262.3770 310.4818 266.5177 369.7100 2125502.7633 90.1771 89.7856
ENERGY: 305000 5285.7974 29288.1304 23247.0234 311.5944 -1836167.7693 -16429.3175 0.0000 0.0000 37503.2609 -1756961.2802 309.3599 -1794464.5411 -1756771.3883 309.4648 150.7509 244.2811 2125502.7633 72.0224 71.5932
ENERGY: 405000 5254.9461 29561.0369 23285.8334 313.8926 -1836235.3838 -16487.3915 0.0000 0.0000 37500.8635 -1756806.2028 309.3401 -1794307.0663 -1756615.5909 309.7733 103.8150 195.8649 2125502.7633 96.0036 95.5682
ENERGY: 505000 5352.2816 29543.5188 23260.4933 311.4044 -1836221.3030 -16598.6122 0.0000 0.0000 37451.1252 -1756901.0920 308.9298 -1794352.2171 -1756711.0659 309.6954 165.8011 265.5606 2125502.7633 60.1630 59.7542
