Info: SIMULATION PARAMETERS:
Info: TIMESTEP               2
Info: NUMBER OF STEPS        0
Info: STEPS PER CYCLE        12
Info: PERIODIC CELL BASIS 1  122.792 0 0
Info: PERIODIC CELL BASIS 2  0 123.893 0
Info: PERIODIC CELL BASIS 3  0 0 110.912
Info: PERIODIC CELL CENTER   -0.424 0.217 0.822
Info: WRAPPING ALL CLUSTERS AROUND PERIODIC BOUNDARIES ON OUTPUT.
Info: FIRST LDB TIMESTEP     60
Info: LAST LDB TIMESTEP     -1
Info: HOM BACKGROUND SCALING 1
Info: PME BACKGROUND SCALING 1
Info: REMOVING PATCHES FROM PROCESSOR 0
Info: MIN ATOMS PER PATCH    40
Info: VELOCITY FILE          /global/u1/j/jmedina/Pathrover/2x79/phase2b/dat_phase2b3.vel
Info: CENTER OF MASS MOVING INITIALLY? NO
Info: DIELECTRIC             1
Info: EXCLUDE                SCALED ONE-FOUR
Info: 1-4 ELECTROSTATICS SCALED BY 1
Info: MODIFIED 1-4 VDW PARAMETERS WILL BE USED
Info: DCD FILENAME           ./dat_phase3_8.dcd
Info: DCD FREQUENCY          10000
Info: DCD FIRST STEP         10000
Info: DCD FILE WILL CONTAIN UNIT CELL DATA
Info: XST FILENAME           ./dat_phase3_8.xst
Info: XST FREQUENCY          10000
Info: NO VELOCITY DCD OUTPUT
Info: NO FORCE DCD OUTPUT
Info: OUTPUT FILENAME        ./dat_phase3_8
Info: RESTART FILENAME       ./dat_phase3_8.restart
Info: RESTART FREQUENCY      10000
Info: BINARY RESTART FILES WILL BE USED
Info: SWITCHING ACTIVE
Info: SWITCHING ON           10
Info: SWITCHING OFF          12
Info: PAIRLIST DISTANCE      13.5
Info: PAIRLIST SHRINK RATE   0.01
Info: PAIRLIST GROW RATE     0.01
Info: PAIRLIST TRIGGER       0.3
Info: PAIRLISTS PER CYCLE    2
Info: PAIRLISTS ENABLED
Info: MARGIN                 1.5
Info: HYDROGEN GROUP CUTOFF  2.5
Info: PATCH DIMENSION        17.5
Info: ENERGY OUTPUT STEPS    30000
Info: CROSSTERM ENERGY INCLUDED IN DIHEDRAL
Info: TIMING OUTPUT STEPS    10000
Info: PRESSURE OUTPUT STEPS  10000
Info: LANGEVIN DYNAMICS ACTIVE
Info: LANGEVIN TEMPERATURE   310
Info: LANGEVIN DAMPING COEFFICIENT IS 5 INVERSE PS
Info: LANGEVIN DYNAMICS NOT APPLIED TO HYDROGENS
Info: LANGEVIN PISTON PRESSURE CONTROL ACTIVE
Info:        TARGET PRESSURE IS 1.01325 BAR
Info:     OSCILLATION PERIOD IS 200 FS
Info:             DECAY TIME IS 50 FS
Info:     PISTON TEMPERATURE IS 310 K
Info:       PRESSURE CONTROL IS GROUP-BASED
Info:    INITIAL STRAIN RATE IS -1.02606e-06 -1.02606e-06 -1.12202e-06
Info:       CELL FLUCTUATION IS ANISOTROPIC
Info:     SHAPE OF CELL IS CONSTRAINED IN X-Y PLANE
Info: PARTICLE MESH EWALD (PME) ACTIVE
Info: PME TOLERANCE               1e-06
Info: PME EWALD COEFFICIENT       0.257952
Info: PME INTERPOLATION ORDER     4
Info: PME GRID DIMENSIONS         128 128 112
Info: PME MAXIMUM GRID SPACING    1
Info: FULL ELECTROSTATIC EVALUATION FREQUENCY      3
Info: USING VERLET I (r-RESPA) MTS SCHEME.
Info: C1 SPLITTING OF LONG RANGE ELECTROSTATICS
Info: PLACING ATOMS IN PATCHES BY HYDROGEN GROUPS
Info: RIGID BONDS TO HYDROGEN : ALL
Info:         ERROR TOLERANCE : 1e-08
Info:          MAX ITERATIONS : 100
Info: RIGID WATER USING SETTLE ALGORITHM
Info: RANDOM NUMBER SEED     1402875751
Info: USE HYDROGEN BONDS?    NO
Info: COORDINATE PDB         /global/u1/j/jmedina/Pathrover/2x79/phase2b/dat_phase2b3.coor
Info: STRUCTURE FILE         /global/u1/j/jmedina/Pathrover/2x79/common/ionized.psf
Info: PARAMETER file: CHARMM format!
Info: PARAMETERS             /global/u1/j/jmedina/Pathrover/2x79/common/parameters_all.prm
Info: USING ARITHMETIC MEAN TO COMBINE L-J SIGMA PARAMETERS
Info: BINARY COORDINATES     /global/u1/j/jmedina/Pathrover/2x79/phase3/dat_phase3_7.restart.coor
Info: SUMMARY OF PARAMETERS:
Info: 231 BONDS
Info: 615 ANGLES
Info: 936 DIHEDRAL
Info: 55 IMPROPER
Info: 6 CROSSTERM
Info: 152 VDW
Info: 0 VDW_PAIRS
Info: 0 NBTHOLE_PAIRS
Info: STRUCTURE SUMMARY:
Info: 173052 ATOMS
Info: 137795 BONDS
Info: 164816 ANGLES
Info: 181135 DIHEDRALS
Info: 2060 IMPROPERS
Info: 0 CROSSTERMS
Info: 0 EXCLUSIONS
Info: 145197 RIGID BONDS
Info: 373959 DEGREES OF FREEDOM
Info: 62622 HYDROGEN GROUPS
Info: 4 ATOMS IN LARGEST HYDROGEN GROUP
Info: 62622 MIGRATION GROUPS
Info: 4 ATOMS IN LARGEST MIGRATION GROUP
Info: TOTAL MASS = 1.03371e+06 amu
Info: TOTAL CHARGE = 4.80842e-05 e
Info: MASS DENSITY = 1.01733 g/cm^3
Info: ATOM DENSITY = 0.102561 atoms/A^3
Info: REMOVING COM VELOCITY -0.015195 -0.00888456 0.0103691
Info: NONBONDED TABLE R-SQUARED SPACING: 0.0625
Info: NONBONDED TABLE SIZE: 769 POINTS
TCL: Running for 10200000 steps
ETITLE: TS BOND ANGLE DIHED IMPRP ELECT VDW BOUNDARY MISC KINETIC TOTAL TEMP POTENTIAL TOTAL3 TEMPAVG PRESSURE GPRESSURE VOLUME PRESSAVG GPRESSAVG
ENERGY: 0 8178.8543 41416.7455 27739.5710 505.7652 -441476.0164 11472.2778 0.0000 0.0000 91436.3048 -260726.4979 246.0850 -352162.8027 -259982.2739 246.0850 41.2981 66.0678 1687311.9373 41.2981 66.0678
ENERGY: 990000 8299.3852 41555.4811 27668.9459 499.0366 -441811.4426 11490.7697 0.0000 0.0000 115361.9349 -236935.8892 310.4766 -352297.8240 -236157.5415 309.2918 -10.0185 31.2617 1685359.6409 1.1425 1.1319
ENERGY: 1950000 8341.3699 41532.9057 27652.8628 522.6930 -443678.0996 12249.2495 0.0000 0.0000 114752.5789 -238626.4396 308.8367 -353379.0185 -237906.9672 309.2145 252.8850 284.8926 1681370.7288 0.7745 0.7688
ENERGY: 2940000 8386.3634 41587.7220 27746.2214 532.4972 -442144.8366 11326.2885 0.0000 0.0000 115319.4018 -237246.3422 310.3622 -352565.7441 -236496.9420 309.3891 16.2405 53.5493 1682787.5348 0.8654 0.8623
ENERGY: 3900000 8316.5615 41637.0016 27745.1271 511.2658 -442715.0985 12119.2967 0.0000 0.0000 115458.5659 -236927.2799 310.7367 -352385.8458 -236168.5903 309.2320 -4.9311 32.1087 1684009.9118 1.8636 1.8766
ENERGY: 4890000 8147.0773 41355.2235 27670.9596 491.7142 -441921.7736 11314.3240 0.0000 0.0000 115058.4171 -237884.0580 309.6598 -352942.4751 -237142.9936 309.2645 -131.0483 -100.2793 1685422.7359 0.6656 0.6645
