Info: SIMULATION PARAMETERS:
Info: TIMESTEP               1
Info: NUMBER OF STEPS        0
Info: STEPS PER CYCLE        20
Info: PERIODIC CELL BASIS 1  156.882 0 0
Info: PERIODIC CELL BASIS 2  0 158.287 0
Info: PERIODIC CELL BASIS 3  0 0 85.358
Info: PERIODIC CELL CENTER   -0.442 0.25 1.773
Info: WRAPPING ALL CLUSTERS AROUND PERIODIC BOUNDARIES ON OUTPUT.
Info: FIRST LDB TIMESTEP     100
Info: LAST LDB TIMESTEP     -1
Info: HOM BACKGROUND SCALING 1
Info: PME BACKGROUND SCALING 1
Info: MAX SELF PARTITIONS    20
Info: MAX PAIR PARTITIONS    8
Info: SELF PARTITION ATOMS   154
Info: SELF2 PARTITION ATOMS   154
Info: PAIR PARTITION ATOMS   318
Info: PAIR2 PARTITION ATOMS  637
Info: MIN ATOMS PER PATCH    100
Info: INITIAL TEMPERATURE    310
Info: CENTER OF MASS MOVING INITIALLY? NO
Info: DIELECTRIC             1
Info: EXCLUDE                SCALED ONE-FOUR
Info: 1-4 ELECTROSTATICS SCALED BY 1
Info: MODIFIED 1-4 VDW PARAMETERS WILL BE USED
Info: DCD FILENAME           ./dat_phase1.dcd
Info: DCD FREQUENCY          5000
Info: DCD FIRST STEP         5000
Info: DCD FILE WILL CONTAIN UNIT CELL DATA
Info: XST FILENAME           ./dat_phase1.xst
Info: XST FREQUENCY          5000
Info: NO VELOCITY DCD OUTPUT
Info: OUTPUT FILENAME        ./dat_phase1
Info: RESTART FILENAME       ./dat_phase1.restart
Info: RESTART FREQUENCY      5000
Info: BINARY RESTART FILES WILL BE USED
Info: SWITCHING ACTIVE
Info: SWITCHING ON           10
Info: SWITCHING OFF          12
Info: PAIRLIST DISTANCE      13.5
Info: PAIRLIST SHRINK RATE   0.01
Info: PAIRLIST GROW RATE     0.01
Info: PAIRLIST TRIGGER       0.3
Info: PAIRLISTS PER CYCLE    2
Info: PAIRLISTS ENABLED
Info: MARGIN                 1.5
Info: HYDROGEN GROUP CUTOFF  2.5
Info: PATCH DIMENSION        17.5
Info: ENERGY OUTPUT STEPS    5000
Info: CROSSTERM ENERGY INCLUDED IN DIHEDRAL
Info: TIMING OUTPUT STEPS    5000
Info: PRESSURE OUTPUT STEPS  5000
Info: FIXED ATOMS ACTIVE
Info: LANGEVIN DYNAMICS ACTIVE
Info: LANGEVIN TEMPERATURE   310
Info: LANGEVIN DAMPING COEFFICIENT IS 5 INVERSE PS
Info: LANGEVIN DYNAMICS NOT APPLIED TO HYDROGENS
Info: PARTICLE MESH EWALD (PME) ACTIVE
Info: PME TOLERANCE               1e-06
Info: PME EWALD COEFFICIENT       0.257952
Info: PME INTERPOLATION ORDER     4
Info: PME GRID DIMENSIONS         160 160 88
Info: PME MAXIMUM GRID SPACING    1
Info: FULL ELECTROSTATIC EVALUATION FREQUENCY      4
Info: USING VERLET I (r-RESPA) MTS SCHEME.
Info: C1 SPLITTING OF LONG RANGE ELECTROSTATICS
Info: PLACING ATOMS IN PATCHES BY HYDROGEN GROUPS
Info: RIGID BONDS TO HYDROGEN : ALL
Info:         ERROR TOLERANCE : 1e-08
Info:          MAX ITERATIONS : 100
Info: RIGID WATER USING SETTLE ALGORITHM
Info: NONBONDED FORCES EVALUATED EVERY 2 STEPS
Info: RANDOM NUMBER SEED     1399315655
Info: USE HYDROGEN BONDS?    NO
Info: COORDINATE PDB         /home/jam2079/Pathrover/2jlo/common/ionized.pdb
Info: STRUCTURE FILE         /home/jam2079/Pathrover/2jlo/common/ionized.psf
Info: PARAMETER file: CHARMM format!
Info: PARAMETERS             /home/jam2079/Pathrover/2jlo/common/BHY_hyd_mod.prm
Info: PARAMETERS             /home/jam2079/Pathrover/2jlo/common/parameters_all.prm
Info: USING ARITHMETIC MEAN TO COMBINE L-J SIGMA PARAMETERS
Info: SUMMARY OF PARAMETERS:
Info: 242 BONDS
Info: 636 ANGLES
Info: 971 DIHEDRAL
Info: 55 IMPROPER
Info: 6 CROSSTERM
Info: 162 VDW
Info: 0 VDW_PAIRS
Info: STRUCTURE SUMMARY:
Info: 169698 ATOMS
Info: 135324 BONDS
Info: 162553 ANGLES
Info: 179218 DIHEDRALS
Info: 2048 IMPROPERS
Info: 0 CROSSTERMS
Info: 0 EXCLUSIONS
Info: 118854 FIXED ATOMS
Info: 142126 RIGID BONDS
Info: 110172 RIGID BONDS BETWEEN FIXED ATOMS
Info: 120578 DEGREES OF FREEDOM
Info: 61464 HYDROGEN GROUPS
Info: 4 ATOMS IN LARGEST HYDROGEN GROUP
Info: 61464 MIGRATION GROUPS
Info: 4 ATOMS IN LARGEST MIGRATION GROUP
Info: 42574 HYDROGEN GROUPS WITH ALL ATOMS FIXED
Info: TOTAL MASS = 1.01377e+06 amu
Info: TOTAL CHARGE = 4.75738e-05 e
Info: MASS DENSITY = 0.794213 g/cm^3
Info: ATOM DENSITY = 0.0800597 atoms/A^3
Info: REMOVING COM VELOCITY -0.00436374 -0.00303117 0.0133189
Info: NONBONDED TABLE R-SQUARED SPACING: 0.0625
Info: NONBONDED TABLE SIZE: 769 POINTS
TCL: Minimizing for 5000 steps
ETITLE: TS BOND ANGLE DIHED IMPRP ELECT VDW BOUNDARY MISC KINETIC TOTAL TEMP POTENTIAL TOTAL3 TEMPAVG PRESSURE GPRESSURE VOLUME PRESSAVG GPRESSAVG
ENERGY: 0 5079.6500 27742.7573 22078.3741 277.8890 -1830773.3177 9999999999.9999 0.0000 0.0000 0.0000 9999999999.9999 0.0000 9999999999.9999 9999999999.9999 0.0000 9999999999.9999 9999999999.9999 2119642.3198 9999999999.9999 9999999999.9999
ENERGY: 1000 2288.7156 18314.9144 25518.2636 183.7303 -1830115.9228 -729.7983 0.0000 0.0000 0.0000 -1784540.0972 0.0000 -1784540.0972 -1784540.0972 0.0000 3029.9317 3054.3044 2119642.3198 3029.9317 3054.3044
ENERGY: 2000 646.6041 6523.1609 22161.6564 123.3235 -1831197.0842 -16085.9573 0.0000 0.0000 0.0000 -1817828.2966 0.0000 -1817828.2966 -1817828.2966 0.0000 84.0746 103.5397 2119642.3198 84.0746 103.5397
ENERGY: 3000 584.0407 5674.6663 20499.4683 101.4524 -1831493.4092 -17608.4738 0.0000 0.0000 0.0000 -1822242.2554 0.0000 -1822242.2554 -1822242.2554 0.0000 90.7322 91.7860 2119642.3198 90.7322 91.7860
ENERGY: 4000 569.5801 5533.1821 20139.4740 96.0697 -1831565.4057 -18044.9819 0.0000 0.0000 0.0000 -1823272.0816 0.0000 -1823272.0816 -1823272.0816 0.0000 49.2086 49.3784 2119642.3198 49.2086 49.3784
ENERGY: 5000 563.4448 5466.1338 20011.4444 93.6035 -1831577.6146 -18252.3225 0.0000 0.0000 0.0000 -1823695.3106 0.0000 -1823695.3106 -1823695.3106 0.0000 49.1453 48.8590 2119642.3198 49.1453 48.8590
TCL: Running for 500000 steps
ETITLE: TS BOND ANGLE DIHED IMPRP ELECT VDW BOUNDARY MISC KINETIC TOTAL TEMP POTENTIAL TOTAL3 TEMPAVG PRESSURE GPRESSURE VOLUME PRESSAVG GPRESSAVG
ENERGY: 5000 515.3782 5504.3954 20011.9938 93.6776 -1831533.2190 -18228.5067 0.0000 0.0000 37143.4916 -1786492.7890 310.0309 -1823636.2806 -1786506.9839 310.0309 354.7223 451.5621 2119642.3198 354.7223 451.5621
ENERGY: 105000 5148.6657 29020.4072 23105.7847 313.1816 -1832481.6783 -15758.2696 0.0000 0.0000 37006.0781 -1753645.8306 308.8840 -1790651.9087 -1753452.9170 310.0656 -502.8056 -418.3511 2119642.3198 104.3295 103.8910
ENERGY: 205000 5183.9512 29017.3917 22987.3641 294.6113 -1832701.9994 -16059.3851 0.0000 0.0000 37097.1065 -1754180.9597 309.6438 -1791278.0662 -1753979.1535 309.6191 -127.0035 -41.4073 2119642.3198 107.6694 107.2352
ENERGY: 305000 5116.1646 29083.4085 23174.3759 297.2801 -1832790.5481 -16333.3380 0.0000 0.0000 37172.9205 -1754279.7366 310.2766 -1791452.6571 -1754088.0189 309.5903 269.4880 356.3201 2119642.3198 91.2554 90.8278
ENERGY: 405000 5167.4390 29104.5588 23020.9492 315.9791 -1832693.3126 -16243.0908 0.0000 0.0000 36955.2710 -1754372.2064 308.4599 -1791327.4774 -1754193.0941 310.2146 -524.1014 -434.9778 2119642.3198 97.2508 96.8020
ENERGY: 505000 5112.1779 29019.0086 23011.5284 326.2466 -1832697.2305 -16186.5555 0.0000 0.0000 37054.7009 -1754360.1235 309.2898 -1791414.8244 -1754167.4883 309.7061 -194.3106 -105.3056 2119642.3198 107.0205 106.5929
