Info: SIMULATION PARAMETERS:
Info: TIMESTEP               1
Info: NUMBER OF STEPS        0
Info: STEPS PER CYCLE        20
Info: PERIODIC CELL BASIS 1  123.246 0 0
Info: PERIODIC CELL BASIS 2  0 124.349 0
Info: PERIODIC CELL BASIS 3  0 0 109.563
Info: PERIODIC CELL CENTER   -0.442 0.25 1.773
Info: WRAPPING ALL CLUSTERS AROUND PERIODIC BOUNDARIES ON OUTPUT.
Info: FIRST LDB TIMESTEP     100
Info: LAST LDB TIMESTEP     -1
Info: HOM BACKGROUND SCALING 1
Info: PME BACKGROUND SCALING 1
Info: MAX SELF PARTITIONS    20
Info: MAX PAIR PARTITIONS    8
Info: SELF PARTITION ATOMS   154
Info: SELF2 PARTITION ATOMS   154
Info: PAIR PARTITION ATOMS   318
Info: PAIR2 PARTITION ATOMS  637
Info: MIN ATOMS PER PATCH    100
Info: VELOCITY FILE          /home/jam2079/Pathrover/2jlo/phase2a/dat_equil_phase2a2.restart.vel
Info: CENTER OF MASS MOVING INITIALLY? NO
Info: DIELECTRIC             1
Info: EXCLUDE                SCALED ONE-FOUR
Info: 1-4 ELECTROSTATICS SCALED BY 1
Info: MODIFIED 1-4 VDW PARAMETERS WILL BE USED
Info: DCD FILENAME           ./dat_equil_phase2a3.np.dcd
Info: DCD FREQUENCY          5000
Info: DCD FIRST STEP         5000
Info: DCD FILE WILL CONTAIN UNIT CELL DATA
Info: XST FILENAME           ./dat_equil_phase2a3.np.xst
Info: XST FREQUENCY          5000
Info: NO VELOCITY DCD OUTPUT
Info: OUTPUT FILENAME        ./dat_equil_phase2a3.np
Info: RESTART FILENAME       ./dat_equil_phase2a3.np.restart
Info: RESTART FREQUENCY      5000
Info: BINARY RESTART FILES WILL BE USED
Info: SWITCHING ACTIVE
Info: SWITCHING ON           10
Info: SWITCHING OFF          12
Info: PAIRLIST DISTANCE      13.5
Info: PAIRLIST SHRINK RATE   0.01
Info: PAIRLIST GROW RATE     0.01
Info: PAIRLIST TRIGGER       0.3
Info: PAIRLISTS PER CYCLE    2
Info: PAIRLISTS ENABLED
Info: MARGIN                 2.5
Info: HYDROGEN GROUP CUTOFF  2.5
Info: PATCH DIMENSION        18.5
Info: ENERGY OUTPUT STEPS    5000
Info: CROSSTERM ENERGY INCLUDED IN DIHEDRAL
Info: TIMING OUTPUT STEPS    5000
Info: PRESSURE OUTPUT STEPS  5000
Info: HARMONIC CONSTRAINTS ACTIVE
Info: HARMONIC CONS EXP      2
Info: LANGEVIN DYNAMICS ACTIVE
Info: LANGEVIN TEMPERATURE   310
Info: LANGEVIN DAMPING COEFFICIENT IS 5 INVERSE PS
Info: LANGEVIN DYNAMICS NOT APPLIED TO HYDROGENS
Info: LANGEVIN PISTON PRESSURE CONTROL ACTIVE
Info:        TARGET PRESSURE IS 1.01325 BAR
Info:     OSCILLATION PERIOD IS 200 FS
Info:             DECAY TIME IS 50 FS
Info:     PISTON TEMPERATURE IS 310 K
Info:       PRESSURE CONTROL IS GROUP-BASED
Info:    INITIAL STRAIN RATE IS 1.3077e-05 1.3077e-05 -2.09487e-05
Info:       CELL FLUCTUATION IS ANISOTROPIC
Info:     SHAPE OF CELL IS CONSTRAINED IN X-Y PLANE
Info: PARTICLE MESH EWALD (PME) ACTIVE
Info: PME TOLERANCE               1e-06
Info: PME EWALD COEFFICIENT       0.257952
Info: PME INTERPOLATION ORDER     4
Info: PME GRID DIMENSIONS         128 128 112
Info: PME MAXIMUM GRID SPACING    1
Info: FULL ELECTROSTATIC EVALUATION FREQUENCY      4
Info: USING VERLET I (r-RESPA) MTS SCHEME.
Info: C1 SPLITTING OF LONG RANGE ELECTROSTATICS
Info: PLACING ATOMS IN PATCHES BY HYDROGEN GROUPS
Info: RIGID BONDS TO HYDROGEN : ALL
Info:         ERROR TOLERANCE : 1e-08
Info:          MAX ITERATIONS : 100
Info: RIGID WATER USING SETTLE ALGORITHM
Info: NONBONDED FORCES EVALUATED EVERY 2 STEPS
Info: RANDOM NUMBER SEED     1400457857
Info: USE HYDROGEN BONDS?    NO
Info: COORDINATE PDB         /home/jam2079/Pathrover/2jlo/phase2a/dat_equil_phase2a2.coor
Info: STRUCTURE FILE         /home/jam2079/Pathrover/2jlo/common/ionized.psf
Info: PARAMETER file: CHARMM format!
Info: PARAMETERS             /home/jam2079/Pathrover/2jlo/common/BHY_hyd_mod.prm
Info: PARAMETERS             /home/jam2079/Pathrover/2jlo/common/parameters_all.prm
Info: USING ARITHMETIC MEAN TO COMBINE L-J SIGMA PARAMETERS
Info: BINARY COORDINATES     /home/jam2079/Pathrover/2jlo/phase2a/dat_equil_phase2a2.restart.coor
Info: SUMMARY OF PARAMETERS:
Info: 242 BONDS
Info: 636 ANGLES
Info: 971 DIHEDRAL
Info: 55 IMPROPER
Info: 6 CROSSTERM
Info: 162 VDW
Info: 0 VDW_PAIRS
Info: STRUCTURE SUMMARY:
Info: 169698 ATOMS
Info: 135324 BONDS
Info: 162553 ANGLES
Info: 179218 DIHEDRALS
Info: 2048 IMPROPERS
Info: 0 CROSSTERMS
Info: 0 EXCLUSIONS
Info: 1846 CONSTRAINTS
Info: 142126 RIGID BONDS
Info: 366968 DEGREES OF FREEDOM
Info: 61464 HYDROGEN GROUPS
Info: 4 ATOMS IN LARGEST HYDROGEN GROUP
Info: 61464 MIGRATION GROUPS
Info: 4 ATOMS IN LARGEST MIGRATION GROUP
Info: TOTAL MASS = 1.01377e+06 amu
Info: TOTAL CHARGE = 4.75738e-05 e
Info: MASS DENSITY = 1.00258 g/cm^3
Info: ATOM DENSITY = 0.101064 atoms/A^3
Info: REMOVING COM VELOCITY -0.0170342 -0.0160772 -0.00858627
Info: NONBONDED TABLE R-SQUARED SPACING: 0.0625
Info: NONBONDED TABLE SIZE: 769 POINTS
TCL: Running for 250000 steps
ETITLE: TS BOND ANGLE DIHED IMPRP ELECT VDW BOUNDARY MISC KINETIC TOTAL TEMP POTENTIAL TOTAL3 TEMPAVG PRESSURE GPRESSURE VOLUME PRESSAVG GPRESSAVG
ENERGY: 0 8007.2700 39953.6476 27716.4880 485.1904 -431607.3318 12480.6274 312.6603 0.0000 112503.4512 -230147.9969 308.5518 -342651.4481 -229858.5687 308.5518 -13095.0238 38.6577 1679109.6031 -13095.0238 38.6577
ENERGY: 50000 7911.7534 40157.3713 27553.0101 505.9982 -431758.8335 11393.5945 319.4402 0.0000 112694.5435 -231223.1223 309.0759 -343917.6658 -230930.7644 309.9444 -13313.9289 -64.4870 1660146.5300 1.1317 1.0882
ENERGY: 100000 7905.9840 39986.3887 27531.6027 498.7629 -432556.5822 11466.8103 312.3543 0.0000 112454.5716 -232400.1078 308.4177 -344854.6794 -232133.9848 309.3905 -13438.3692 -99.1986 1655190.1517 1.6999 1.7287
ENERGY: 150000 8019.6337 40296.7152 27632.3341 537.8339 -431807.8421 10999.3204 312.0115 0.0000 112190.0174 -231819.9760 307.6921 -344009.9934 -231531.9494 309.5530 -13430.8454 -121.7969 1654285.3217 -2.0234 -2.0378
ENERGY: 200000 7995.7401 40261.3780 27450.2220 498.4193 -432132.1869 11278.3095 314.7411 0.0000 112567.1716 -231766.2054 308.7265 -344333.3770 -231470.0165 309.6170 -13397.0052 -75.1648 1655650.8683 3.8774 3.7993
ENERGY: 250000 7886.7206 40256.9309 27615.9202 542.4069 -432141.4030 11181.5810 315.5489 0.0000 112648.2964 -231693.9979 308.9490 -344342.2944 -231407.7764 309.4166 -13297.2908 7.5804 1654317.1450 1.7425 1.6521
