Info: SIMULATION PARAMETERS:
Info: TIMESTEP               1
Info: NUMBER OF STEPS        0
Info: STEPS PER CYCLE        20
Info: PERIODIC CELL BASIS 1  127.363 0 0
Info: PERIODIC CELL BASIS 2  0 128.502 0
Info: PERIODIC CELL BASIS 3  0 0 101.311
Info: PERIODIC CELL CENTER   -0.442 0.25 1.773
Info: WRAPPING ALL CLUSTERS AROUND PERIODIC BOUNDARIES ON OUTPUT.
Info: FIRST LDB TIMESTEP     100
Info: LAST LDB TIMESTEP     -1
Info: HOM BACKGROUND SCALING 1
Info: PME BACKGROUND SCALING 1
Info: MAX SELF PARTITIONS    20
Info: MAX PAIR PARTITIONS    8
Info: SELF PARTITION ATOMS   154
Info: SELF2 PARTITION ATOMS   154
Info: PAIR PARTITION ATOMS   318
Info: PAIR2 PARTITION ATOMS  637
Info: MIN ATOMS PER PATCH    100
Info: VELOCITY FILE          /home/jam2079/Pathrover/2jlo/phase1c/dat_phase1c.vel
Info: CENTER OF MASS MOVING INITIALLY? NO
Info: DIELECTRIC             1
Info: EXCLUDE                SCALED ONE-FOUR
Info: 1-4 ELECTROSTATICS SCALED BY 1
Info: MODIFIED 1-4 VDW PARAMETERS WILL BE USED
Info: DCD FILENAME           ./dat_equil_phase2a1.np.dcd
Info: DCD FREQUENCY          5000
Info: DCD FIRST STEP         5000
Info: DCD FILE WILL CONTAIN UNIT CELL DATA
Info: XST FILENAME           ./dat_equil_phase2a1.np.xst
Info: XST FREQUENCY          5000
Info: NO VELOCITY DCD OUTPUT
Info: OUTPUT FILENAME        ./dat_equil_phase2a1.np
Info: RESTART FILENAME       ./dat_equil_phase2a1.np.restart
Info: RESTART FREQUENCY      5000
Info: BINARY RESTART FILES WILL BE USED
Info: SWITCHING ACTIVE
Info: SWITCHING ON           10
Info: SWITCHING OFF          12
Info: PAIRLIST DISTANCE      13.5
Info: PAIRLIST SHRINK RATE   0.01
Info: PAIRLIST GROW RATE     0.01
Info: PAIRLIST TRIGGER       0.3
Info: PAIRLISTS PER CYCLE    2
Info: PAIRLISTS ENABLED
Info: MARGIN                 1.5
Info: HYDROGEN GROUP CUTOFF  2.5
Info: PATCH DIMENSION        17.5
Info: ENERGY OUTPUT STEPS    5000
Info: CROSSTERM ENERGY INCLUDED IN DIHEDRAL
Info: TIMING OUTPUT STEPS    5000
Info: PRESSURE OUTPUT STEPS  5000
Info: HARMONIC CONSTRAINTS ACTIVE
Info: HARMONIC CONS EXP      2
Info: LANGEVIN DYNAMICS ACTIVE
Info: LANGEVIN TEMPERATURE   310
Info: LANGEVIN DAMPING COEFFICIENT IS 5 INVERSE PS
Info: LANGEVIN DYNAMICS NOT APPLIED TO HYDROGENS
Info: LANGEVIN PISTON PRESSURE CONTROL ACTIVE
Info:        TARGET PRESSURE IS 1.01325 BAR
Info:     OSCILLATION PERIOD IS 200 FS
Info:             DECAY TIME IS 50 FS
Info:     PISTON TEMPERATURE IS 310 K
Info:       PRESSURE CONTROL IS GROUP-BASED
Info:    INITIAL STRAIN RATE IS -1.35568e-05 -1.35568e-05 1.18999e-05
Info:       CELL FLUCTUATION IS ANISOTROPIC
Info:     SHAPE OF CELL IS CONSTRAINED IN X-Y PLANE
Info: PARTICLE MESH EWALD (PME) ACTIVE
Info: PME TOLERANCE               1e-06
Info: PME EWALD COEFFICIENT       0.257952
Info: PME INTERPOLATION ORDER     4
Info: PME GRID DIMENSIONS         128 132 108
Info: PME MAXIMUM GRID SPACING    1
Info: FULL ELECTROSTATIC EVALUATION FREQUENCY      4
Info: USING VERLET I (r-RESPA) MTS SCHEME.
Info: C1 SPLITTING OF LONG RANGE ELECTROSTATICS
Info: PLACING ATOMS IN PATCHES BY HYDROGEN GROUPS
Info: RIGID BONDS TO HYDROGEN : ALL
Info:         ERROR TOLERANCE : 1e-08
Info:          MAX ITERATIONS : 100
Info: RIGID WATER USING SETTLE ALGORITHM
Info: NONBONDED FORCES EVALUATED EVERY 2 STEPS
Info: RANDOM NUMBER SEED     1399435543
Info: USE HYDROGEN BONDS?    NO
Info: COORDINATE PDB         /home/jam2079/Pathrover/2jlo/phase1c/dat_phase1c.coor
Info: STRUCTURE FILE         /home/jam2079/Pathrover/2jlo/common/ionized.psf
Info: PARAMETER file: CHARMM format!
Info: PARAMETERS             /home/jam2079/Pathrover/2jlo/common/parameters_all.prm
Info: PARAMETERS             /home/jam2079/Pathrover/2jlo/common/BHY_hyd_mod.prm
Info: USING ARITHMETIC MEAN TO COMBINE L-J SIGMA PARAMETERS
Info: SUMMARY OF PARAMETERS:
Info: 242 BONDS
Info: 636 ANGLES
Info: 971 DIHEDRAL
Info: 55 IMPROPER
Info: 6 CROSSTERM
Info: 162 VDW
Info: 0 VDW_PAIRS
Info: STRUCTURE SUMMARY:
Info: 169698 ATOMS
Info: 135324 BONDS
Info: 162553 ANGLES
Info: 179218 DIHEDRALS
Info: 2048 IMPROPERS
Info: 0 CROSSTERMS
Info: 0 EXCLUSIONS
Info: 1846 CONSTRAINTS
Info: 142126 RIGID BONDS
Info: 366968 DEGREES OF FREEDOM
Info: 61464 HYDROGEN GROUPS
Info: 4 ATOMS IN LARGEST HYDROGEN GROUP
Info: 61464 MIGRATION GROUPS
Info: 4 ATOMS IN LARGEST MIGRATION GROUP
Info: TOTAL MASS = 1.01377e+06 amu
Info: TOTAL CHARGE = 4.75738e-05 e
Info: MASS DENSITY = 1.01529 g/cm^3
Info: ATOM DENSITY = 0.102345 atoms/A^3
Info: REMOVING COM VELOCITY 0.0004675 0.00868252 0.0116513
Info: NONBONDED TABLE R-SQUARED SPACING: 0.0625
Info: NONBONDED TABLE SIZE: 769 POINTS
TCL: Minimizing for 2500 steps
ETITLE: TS BOND ANGLE DIHED IMPRP ELECT VDW BOUNDARY MISC KINETIC TOTAL TEMP POTENTIAL TOTAL3 TEMPAVG PRESSURE GPRESSURE VOLUME PRESSAVG GPRESSAVG
ENERGY: 0 7256.3467 39495.5841 27722.4996 436.7551 -430795.4139 13511.8796 0.0000 0.0000 0.0000 -342372.3487 0.0000 -342372.3487 -342372.3487 0.0000 12692.5425 -763.1611 1658096.3733 12692.5425 -763.1611
ENERGY: 500 16617.2250 19226.6528 23008.7614 65.5645 -577337.1689 27697.3174 152.2363 0.0000 0.0000 -490569.4114 0.0000 -490569.4114 -490569.4114 0.0000 -5155.6192 -5028.2801 1658096.3733 -5155.6192 -5028.2801
ENERGY: 1000 16966.0739 19301.3319 22706.4286 66.2515 -589694.6433 32256.7714 161.0087 0.0000 0.0000 -498236.7773 0.0000 -498236.7773 -498236.7773 0.0000 -4728.1948 -4713.7185 1658096.3733 -4728.1948 -4713.7185
ENERGY: 1500 17292.1961 19285.7404 22595.4187 63.5131 -595046.6261 34598.1906 167.2170 0.0000 0.0000 -501044.3503 0.0000 -501044.3503 -501044.3503 0.0000 -4544.1382 -4485.4849 1658096.3733 -4544.1382 -4485.4849
ENERGY: 2000 17381.6690 19355.7899 22548.2641 63.9641 -597612.6887 35692.2416 168.3079 0.0000 0.0000 -502402.4521 0.0000 -502402.4521 -502402.4521 0.0000 -4415.3571 -4373.7370 1658096.3733 -4415.3571 -4373.7370
ENERGY: 2500 17414.5591 19373.9765 22524.8006 64.0836 -599131.1206 36415.4782 168.4263 0.0000 0.0000 -503169.7963 0.0000 -503169.7963 -503169.7963 0.0000 -4298.4285 -4282.8113 1658096.3733 -4298.4285 -4282.8113
TCL: Running for 250000 steps
ETITLE: TS BOND ANGLE DIHED IMPRP ELECT VDW BOUNDARY MISC KINETIC TOTAL TEMP POTENTIAL TOTAL3 TEMPAVG PRESSURE GPRESSURE VOLUME PRESSAVG GPRESSAVG
ENERGY: 5000 8037.1172 39372.6003 27622.6040 487.6629 -438626.4859 13360.2340 259.7155 0.0000 109637.6947 -239848.8574 300.6921 -349486.5520 -239568.0122 266.0879 -13591.0704 4.6878 1653282.8208 -4.6710 0.7637
ENERGY: 55000 8039.0222 40287.0137 27648.8510 543.2489 -432189.5007 11753.2118 299.0073 0.0000 112792.3370 -230826.8087 309.3441 -343619.1457 -230541.2733 309.6523 -13358.1963 -57.2724 1657867.8527 -2.9407 -2.8921
ENERGY: 105000 8033.8191 40156.7877 27757.0409 509.8002 -431448.3187 11590.7166 299.2518 0.0000 113033.7969 -230067.1055 310.0063 -343100.9024 -229788.2808 309.5428 -13287.8210 -33.4983 1660167.5384 -1.4017 -1.3762
ENERGY: 150000 8100.1552 40064.7448 27713.7313 515.0747 -431579.8506 11648.2633 319.1441 0.0000 112650.2042 -230568.5331 308.9542 -343218.7373 -230297.3718 309.6600 -13455.9522 -169.0382 1657143.6855 5.5952 5.6191
ENERGY: 200000 7903.1487 40130.7195 27659.5988 461.5191 -432086.3568 11528.7113 313.7576 0.0000 112888.7845 -231200.1172 309.6086 -344088.9017 -230918.7771 309.6271 -13190.9133 157.8014 1648825.0610 3.2258 3.2455
ENERGY: 250000 7858.3204 40333.3259 27640.9196 534.9315 -431744.5509 11446.4088 317.6548 0.0000 112853.3030 -230759.6869 309.5113 -343612.9899 -230472.5005 309.9257 -13360.3789 -69.8528 1654037.9712 2.0492 2.1279
