Info: SIMULATION PARAMETERS:
Info: TIMESTEP               1
Info: NUMBER OF STEPS        0
Info: STEPS PER CYCLE        20
Info: PERIODIC CELL BASIS 1  120.559 0 0
Info: PERIODIC CELL BASIS 2  0 121.64 0
Info: PERIODIC CELL BASIS 3  0 0 117.292
Info: PERIODIC CELL CENTER   -0.405 0.185 1.712
Info: WRAPPING ALL CLUSTERS AROUND PERIODIC BOUNDARIES ON OUTPUT.
Info: FIRST LDB TIMESTEP     100
Info: LAST LDB TIMESTEP     -1
Info: HOM BACKGROUND SCALING 1
Info: PME BACKGROUND SCALING 1
Info: REMOVING PATCHES FROM PROCESSOR 0
Info: MIN ATOMS PER PATCH    40
Info: VELOCITY FILE          ../phase2a/dat_equil_phase2a6.restart.vel
Info: CENTER OF MASS MOVING INITIALLY? NO
Info: DIELECTRIC             1
Info: EXCLUDE                SCALED ONE-FOUR
Info: 1-4 ELECTROSTATICS SCALED BY 1
Info: MODIFIED 1-4 VDW PARAMETERS WILL BE USED
Info: DCD FILENAME           ./dat_phase2b1.dcd
Info: DCD FREQUENCY          5000
Info: DCD FIRST STEP         5000
Info: DCD FILE WILL CONTAIN UNIT CELL DATA
Info: XST FILENAME           ./dat_phase2b1.xst
Info: XST FREQUENCY          5000
Info: NO VELOCITY DCD OUTPUT
Info: NO FORCE DCD OUTPUT
Info: OUTPUT FILENAME        ./dat_phase2b1
Info: RESTART FILENAME       ./dat_phase2b1.restart
Info: RESTART FREQUENCY      5000
Info: BINARY RESTART FILES WILL BE USED
Info: SWITCHING ACTIVE
Info: SWITCHING ON           10
Info: SWITCHING OFF          12
Info: PAIRLIST DISTANCE      13.5
Info: PAIRLIST SHRINK RATE   0.01
Info: PAIRLIST GROW RATE     0.01
Info: PAIRLIST TRIGGER       0.3
Info: PAIRLISTS PER CYCLE    2
Info: PAIRLISTS ENABLED
Info: MARGIN                 1.5
Info: HYDROGEN GROUP CUTOFF  2.5
Info: PATCH DIMENSION        17.5
Info: ENERGY OUTPUT STEPS    5000
Info: CROSSTERM ENERGY INCLUDED IN DIHEDRAL
Info: TIMING OUTPUT STEPS    5000
Info: PRESSURE OUTPUT STEPS  5000
Info: HARMONIC CONSTRAINTS ACTIVE
Info: HARMONIC CONS EXP      2
Info: LANGEVIN DYNAMICS ACTIVE
Info: LANGEVIN TEMPERATURE   310
Info: LANGEVIN DAMPING COEFFICIENT IS 5 INVERSE PS
Info: LANGEVIN DYNAMICS NOT APPLIED TO HYDROGENS
Info: LANGEVIN PISTON PRESSURE CONTROL ACTIVE
Info:        TARGET PRESSURE IS 1.01325 BAR
Info:     OSCILLATION PERIOD IS 200 FS
Info:             DECAY TIME IS 50 FS
Info:     PISTON TEMPERATURE IS 310 K
Info:       PRESSURE CONTROL IS GROUP-BASED
Info:    INITIAL STRAIN RATE IS 2.54656e-06 2.54656e-06 -4.10119e-05
Info:       CELL FLUCTUATION IS ANISOTROPIC
Info:     SHAPE OF CELL IS CONSTRAINED IN X-Y PLANE
Info: PARTICLE MESH EWALD (PME) ACTIVE
Info: PME TOLERANCE               1e-06
Info: PME EWALD COEFFICIENT       0.257952
Info: PME INTERPOLATION ORDER     4
Info: PME GRID DIMENSIONS         128 128 120
Info: PME MAXIMUM GRID SPACING    1
Info: FULL ELECTROSTATIC EVALUATION FREQUENCY      4
Info: USING VERLET I (r-RESPA) MTS SCHEME.
Info: C1 SPLITTING OF LONG RANGE ELECTROSTATICS
Info: PLACING ATOMS IN PATCHES BY HYDROGEN GROUPS
Info: RIGID BONDS TO HYDROGEN : ALL
Info:         ERROR TOLERANCE : 1e-08
Info:          MAX ITERATIONS : 100
Info: RIGID WATER USING SETTLE ALGORITHM
Info: NONBONDED FORCES EVALUATED EVERY 2 STEPS
Info: RANDOM NUMBER SEED     1404397236
Info: USE HYDROGEN BONDS?    NO
Info: COORDINATE PDB         ../phase2a/dat_equil_phase2a6.coor
Info: STRUCTURE FILE         ../common/ionized.psf
Info: PARAMETER file: CHARMM format!
Info: PARAMETERS             ../common/parameters_all.prm
Info: USING ARITHMETIC MEAN TO COMBINE L-J SIGMA PARAMETERS
Info: BINARY COORDINATES     ../phase2a/dat_equil_phase2a6.restart.coor
Info: SUMMARY OF PARAMETERS:
Info: 231 BONDS
Info: 615 ANGLES
Info: 936 DIHEDRAL
Info: 55 IMPROPER
Info: 6 CROSSTERM
Info: 152 VDW
Info: 0 VDW_PAIRS
Info: 0 NBTHOLE_PAIRS
Info: STRUCTURE SUMMARY:
Info: 174063 ATOMS
Info: 138305 BONDS
Info: 164367 ANGLES
Info: 179819 DIHEDRALS
Info: 2052 IMPROPERS
Info: 0 CROSSTERMS
Info: 0 EXCLUSIONS
Info: 1846 CONSTRAINTS
Info: 146402 RIGID BONDS
Info: 375787 DEGREES OF FREEDOM
Info: 62931 HYDROGEN GROUPS
Info: 4 ATOMS IN LARGEST HYDROGEN GROUP
Info: 62931 MIGRATION GROUPS
Info: 4 ATOMS IN LARGEST MIGRATION GROUP
Info: TOTAL MASS = 1.03996e+06 amu
Info: TOTAL CHARGE = 4.77266e-05 e
Info: MASS DENSITY = 1.00399 g/cm^3
Info: ATOM DENSITY = 0.101196 atoms/A^3
Info: REMOVING COM VELOCITY -0.0275346 0.0282631 -0.0148806
Info: NONBONDED TABLE R-SQUARED SPACING: 0.0625
Info: NONBONDED TABLE SIZE: 769 POINTS
TCL: Minimizing for 2500 steps
ETITLE: TS BOND ANGLE DIHED IMPRP ELECT VDW BOUNDARY MISC KINETIC TOTAL TEMP POTENTIAL TOTAL3 TEMPAVG PRESSURE GPRESSURE VOLUME PRESSAVG GPRESSAVG
ENERGY: 0 8009.5526 40473.7240 27594.7615 486.8895 -446635.6636 12875.4151 252.7289 0.0000 0.0000 -356942.5920 0.0000 -356942.5920 -356942.5920 0.0000 11828.4581 -1685.0847 1720063.3416 11828.4581 -1685.0847
ENERGY: 500 17136.2953 18991.3897 23034.5635 69.6518 -592254.3084 25542.4473 162.4846 0.0000 0.0000 -507317.4762 0.0000 -507317.4762 -507317.4762 0.0000 -5918.0568 -5660.5969 1720063.3416 -5918.0568 -5660.5969
ENERGY: 1000 17533.8960 19522.6328 22571.1968 64.7228 -610461.8124 33679.1398 154.9203 0.0000 0.0000 -516935.3038 0.0000 -516935.3038 -516935.3038 0.0000 -4886.7852 -4874.0964 1720063.3416 -4886.7852 -4874.0964
ENERGY: 1500 17702.7471 19651.3301 22464.5357 64.7226 -616348.4509 36594.6391 153.8863 0.0000 0.0000 -519716.5900 0.0000 -519716.5900 -519716.5900 0.0000 -4440.2610 -4490.6191 1720063.3416 -4440.2610 -4490.6191
ENERGY: 2000 17877.5340 19708.1936 22425.1661 63.9924 -618739.6380 37260.1565 154.5094 0.0000 0.0000 -521250.0860 0.0000 -521250.0860 -521250.0860 0.0000 -4433.4193 -4443.6962 1720063.3416 -4433.4193 -4443.6962
ENERGY: 2500 18001.3960 19678.2762 22387.0557 63.8260 -620777.3894 38379.6382 155.4124 0.0000 0.0000 -522111.7848 0.0000 -522111.7848 -522111.7848 0.0000 -4257.2756 -4248.1529 1720063.3416 -4257.2756 -4248.1529
TCL: Running for 500000 steps
ETITLE: TS BOND ANGLE DIHED IMPRP ELECT VDW BOUNDARY MISC KINETIC TOTAL TEMP POTENTIAL TOTAL3 TEMPAVG PRESSURE GPRESSURE VOLUME PRESSAVG GPRESSAVG
ENERGY: 5000 7879.7793 39608.2393 27433.7627 526.4340 -454971.1970 14460.2861 253.7222 0.0000 112334.7681 -252474.2054 300.8589 -364808.9734 -252206.8672 265.8771 -13789.4648 -87.2287 1708377.3430 -6.3384 -0.9021
ENERGY: 105000 8001.0112 40442.5695 27722.1347 514.8404 -446585.9471 11635.5157 232.3030 0.0000 115318.1822 -242719.3903 308.8492 -358037.5726 -242404.9090 309.7922 -13614.5963 -132.8914 1696429.9799 5.3304 5.2843
ENERGY: 205000 8048.5647 40360.7312 27532.5042 521.7788 -447196.6319 12469.3159 242.5700 0.0000 115562.6795 -242458.4876 309.5040 -358021.1671 -242163.4398 310.1887 -13565.8484 -68.8251 1694345.5787 -0.1946 -0.1574
ENERGY: 300000 8094.0422 40337.4157 27429.8421 466.7620 -447373.8982 12541.6985 249.9330 0.0000 115274.8186 -242979.3861 308.7330 -358254.2047 -242681.7103 310.0172 -13546.4125 -40.6395 1695053.5044 2.2824 2.2525
ENERGY: 400000 7995.6427 40216.7557 27597.3968 504.5522 -447476.1640 12594.1790 242.8820 0.0000 115767.3764 -242557.3792 310.0522 -358324.7556 -242271.9572 310.0457 -13374.1070 146.0651 1693015.9903 5.0128 4.9759
ENERGY: 500000 8107.2767 40369.2675 27585.3836 517.0169 -446525.6991 11980.4200 241.6477 0.0000 115556.1200 -242168.5668 309.4864 -357724.6868 -241877.9951 309.8542 -13706.7939 -223.4821 1693740.4621 -2.1444 -2.2037
