Info: SIMULATION PARAMETERS:
Info: TIMESTEP               1
Info: NUMBER OF STEPS        2500000
Info: STEPS PER CYCLE        20
Info: PERIODIC CELL BASIS 1  123.335 0 0
Info: PERIODIC CELL BASIS 2  0 124.441 0
Info: PERIODIC CELL BASIS 3  0 0 110.502
Info: PERIODIC CELL CENTER   -0.405 0.185 1.712
Info: WRAPPING ALL CLUSTERS AROUND PERIODIC BOUNDARIES ON OUTPUT.
Info: FIRST LDB TIMESTEP     100
Info: LAST LDB TIMESTEP     -1
Info: HOM BACKGROUND SCALING 1
Info: PME BACKGROUND SCALING 1
Info: REMOVING PATCHES FROM PROCESSOR 0
Info: MIN ATOMS PER PATCH    40
Info: VELOCITY FILE          ../phase2b/dat_phase2b2.restart.vel
Info: CENTER OF MASS MOVING INITIALLY? NO
Info: DIELECTRIC             1
Info: EXCLUDE                SCALED ONE-FOUR
Info: 1-4 ELECTROSTATICS SCALED BY 1
Info: MODIFIED 1-4 VDW PARAMETERS WILL BE USED
Info: DCD FILENAME           ./dat_phase2b3.dcd
Info: DCD FREQUENCY          5000
Info: DCD FIRST STEP         2505000
Info: DCD FILE WILL CONTAIN UNIT CELL DATA
Info: XST FILENAME           ./dat_phase2b3.xst
Info: XST FREQUENCY          5000
Info: NO VELOCITY DCD OUTPUT
Info: NO FORCE DCD OUTPUT
Info: OUTPUT FILENAME        ./dat_phase2b3
Info: RESTART FILENAME       ./dat_phase2b3.restart
Info: RESTART FREQUENCY      5000
Info: BINARY RESTART FILES WILL BE USED
Info: SWITCHING ACTIVE
Info: SWITCHING ON           10
Info: SWITCHING OFF          12
Info: PAIRLIST DISTANCE      13.5
Info: PAIRLIST SHRINK RATE   0.01
Info: PAIRLIST GROW RATE     0.01
Info: PAIRLIST TRIGGER       0.3
Info: PAIRLISTS PER CYCLE    2
Info: PAIRLISTS ENABLED
Info: MARGIN                 1.5
Info: HYDROGEN GROUP CUTOFF  2.5
Info: PATCH DIMENSION        17.5
Info: ENERGY OUTPUT STEPS    5000
Info: CROSSTERM ENERGY INCLUDED IN DIHEDRAL
Info: TIMING OUTPUT STEPS    5000
Info: PRESSURE OUTPUT STEPS  5000
Info: HARMONIC CONSTRAINTS ACTIVE
Info: HARMONIC CONS EXP      2
Info: LANGEVIN DYNAMICS ACTIVE
Info: LANGEVIN TEMPERATURE   310
Info: LANGEVIN DAMPING COEFFICIENT IS 5 INVERSE PS
Info: LANGEVIN DYNAMICS NOT APPLIED TO HYDROGENS
Info: LANGEVIN PISTON PRESSURE CONTROL ACTIVE
Info:        TARGET PRESSURE IS 1.01325 BAR
Info:     OSCILLATION PERIOD IS 200 FS
Info:             DECAY TIME IS 50 FS
Info:     PISTON TEMPERATURE IS 310 K
Info:       PRESSURE CONTROL IS GROUP-BASED
Info:    INITIAL STRAIN RATE IS -1.48843e-05 -1.48843e-05 9.15842e-06
Info:       CELL FLUCTUATION IS ANISOTROPIC
Info:     SHAPE OF CELL IS CONSTRAINED IN X-Y PLANE
Info: PARTICLE MESH EWALD (PME) ACTIVE
Info: PME TOLERANCE               1e-06
Info: PME EWALD COEFFICIENT       0.257952
Info: PME INTERPOLATION ORDER     4
Info: PME GRID DIMENSIONS         128 128 112
Info: PME MAXIMUM GRID SPACING    1
Info: FULL ELECTROSTATIC EVALUATION FREQUENCY      4
Info: USING VERLET I (r-RESPA) MTS SCHEME.
Info: C1 SPLITTING OF LONG RANGE ELECTROSTATICS
Info: PLACING ATOMS IN PATCHES BY HYDROGEN GROUPS
Info: RIGID BONDS TO HYDROGEN : ALL
Info:         ERROR TOLERANCE : 1e-08
Info:          MAX ITERATIONS : 100
Info: RIGID WATER USING SETTLE ALGORITHM
Info: NONBONDED FORCES EVALUATED EVERY 2 STEPS
Info: RANDOM NUMBER SEED     1404485020
Info: USE HYDROGEN BONDS?    NO
Info: COORDINATE PDB         ../phase2b/dat_phase2b2.coor
Info: STRUCTURE FILE         ../common/ionized.psf
Info: PARAMETER file: CHARMM format!
Info: PARAMETERS             ../common/parameters_all.prm
Info: USING ARITHMETIC MEAN TO COMBINE L-J SIGMA PARAMETERS
Info: BINARY COORDINATES     ../phase2b/dat_phase2b2.restart.coor
Info: FIRST TIMESTEP         2500000
Info: SUMMARY OF PARAMETERS:
Info: 231 BONDS
Info: 615 ANGLES
Info: 936 DIHEDRAL
Info: 55 IMPROPER
Info: 6 CROSSTERM
Info: 152 VDW
Info: 0 VDW_PAIRS
Info: 0 NBTHOLE_PAIRS
Info: STRUCTURE SUMMARY:
Info: 174063 ATOMS
Info: 138305 BONDS
Info: 164367 ANGLES
Info: 179819 DIHEDRALS
Info: 2052 IMPROPERS
Info: 0 CROSSTERMS
Info: 0 EXCLUSIONS
Info: 1846 CONSTRAINTS
Info: 146402 RIGID BONDS
Info: 375787 DEGREES OF FREEDOM
Info: 62931 HYDROGEN GROUPS
Info: 4 ATOMS IN LARGEST HYDROGEN GROUP
Info: 62931 MIGRATION GROUPS
Info: 4 ATOMS IN LARGEST MIGRATION GROUP
Info: TOTAL MASS = 1.03996e+06 amu
Info: TOTAL CHARGE = 4.77266e-05 e
Info: MASS DENSITY = 1.01825 g/cm^3
Info: ATOM DENSITY = 0.102633 atoms/A^3
Info: REMOVING COM VELOCITY 0.00716911 0.0113294 0.0118531
Info: NONBONDED TABLE R-SQUARED SPACING: 0.0625
Info: NONBONDED TABLE SIZE: 769 POINTS
TCL: Running for 500000 steps
ETITLE: TS BOND ANGLE DIHED IMPRP ELECT VDW BOUNDARY MISC KINETIC TOTAL TEMP POTENTIAL TOTAL3 TEMPAVG PRESSURE GPRESSURE VOLUME PRESSAVG GPRESSAVG
ENERGY: 2500000 8002.0791 40348.4247 27527.3076 513.1536 -446593.1094 12227.8639 35.0289 0.0000 115533.4487 -242405.8030 309.4257 -357939.2517 -242109.0164 309.4257 -13381.9283 93.3538 1695977.0421 -13381.9283 93.3538
ENERGY: 2600000 8088.3034 40338.5253 27557.1399 507.1042 -447514.8641 12431.4020 63.0975 0.0000 115541.3940 -242987.8977 309.4470 -358529.2917 -242663.1660 309.7257 -13636.5469 -136.4649 1697167.2070 7.0779 7.0653
ENERGY: 2700000 8019.0179 40201.1832 27484.3063 498.4225 -447517.0883 11815.3192 55.6944 0.0000 115926.0738 -243517.0711 310.4772 -359443.1448 -243220.1343 309.4922 -13680.9157 -137.6663 1690724.9752 3.4895 3.4622
ENERGY: 2800000 8074.4739 40167.4338 27472.7704 491.3092 -448658.1988 13010.8866 60.0722 0.0000 115513.0196 -243868.2332 309.3710 -359381.2528 -243580.9992 309.5508 -13366.0389 160.7931 1696502.9874 0.1035 0.1780
ENERGY: 2900000 8066.0055 40337.2947 27493.9463 507.6277 -448290.2765 12984.0412 64.1307 0.0000 115362.9379 -243474.2927 308.9690 -358837.2305 -243154.6698 309.3984 -13474.4561 35.3316 1696330.7579 0.7923 0.7859
ENERGY: 3000000 7936.9282 40290.2867 27560.3567 527.8580 -447734.9796 12365.8719 67.5418 0.0000 115003.1971 -243982.9394 308.0056 -358986.1364 -243704.4947 309.4437 -13496.6370 19.9646 1693432.5822 3.5325 3.5004
