Info: SIMULATION PARAMETERS:
Info: TIMESTEP               1
Info: NUMBER OF STEPS        0
Info: STEPS PER CYCLE        20
Info: PERIODIC CELL BASIS 1  156.882 0 0
Info: PERIODIC CELL BASIS 2  0 158.287 0
Info: PERIODIC CELL BASIS 3  0 0 86.743
Info: PERIODIC CELL CENTER   -0.424 0.217 0.822
Info: WRAPPING ALL CLUSTERS AROUND PERIODIC BOUNDARIES ON OUTPUT.
Info: FIRST LDB TIMESTEP     100
Info: LAST LDB TIMESTEP     -1
Info: HOM BACKGROUND SCALING 1
Info: PME BACKGROUND SCALING 1
Info: MAX SELF PARTITIONS    20
Info: MAX PAIR PARTITIONS    8
Info: SELF PARTITION ATOMS   154
Info: SELF2 PARTITION ATOMS   154
Info: PAIR PARTITION ATOMS   318
Info: PAIR2 PARTITION ATOMS  637
Info: MIN ATOMS PER PATCH    100
Info: INITIAL TEMPERATURE    310
Info: CENTER OF MASS MOVING INITIALLY? NO
Info: DIELECTRIC             1
Info: EXCLUDE                SCALED ONE-FOUR
Info: 1-4 ELECTROSTATICS SCALED BY 1
Info: MODIFIED 1-4 VDW PARAMETERS WILL BE USED
Info: DCD FILENAME           ./dat_phase1.dcd
Info: DCD FREQUENCY          5000
Info: DCD FIRST STEP         5000
Info: DCD FILE WILL CONTAIN UNIT CELL DATA
Info: XST FILENAME           ./dat_phase1.xst
Info: XST FREQUENCY          5000
Info: NO VELOCITY DCD OUTPUT
Info: OUTPUT FILENAME        ./dat_phase1
Info: RESTART FILENAME       ./dat_phase1.restart
Info: RESTART FREQUENCY      5000
Info: BINARY RESTART FILES WILL BE USED
Info: SWITCHING ACTIVE
Info: SWITCHING ON           10
Info: SWITCHING OFF          12
Info: PAIRLIST DISTANCE      13.5
Info: PAIRLIST SHRINK RATE   0.01
Info: PAIRLIST GROW RATE     0.01
Info: PAIRLIST TRIGGER       0.3
Info: PAIRLISTS PER CYCLE    2
Info: PAIRLISTS ENABLED
Info: MARGIN                 1.5
Info: HYDROGEN GROUP CUTOFF  2.5
Info: PATCH DIMENSION        17.5
Info: ENERGY OUTPUT STEPS    5000
Info: CROSSTERM ENERGY INCLUDED IN DIHEDRAL
Info: TIMING OUTPUT STEPS    5000
Info: PRESSURE OUTPUT STEPS  5000
Info: FIXED ATOMS ACTIVE
Info: LANGEVIN DYNAMICS ACTIVE
Info: LANGEVIN TEMPERATURE   310
Info: LANGEVIN DAMPING COEFFICIENT IS 5 INVERSE PS
Info: LANGEVIN DYNAMICS NOT APPLIED TO HYDROGENS
Info: PARTICLE MESH EWALD (PME) ACTIVE
Info: PME TOLERANCE               1e-06
Info: PME EWALD COEFFICIENT       0.257952
Info: PME INTERPOLATION ORDER     4
Info: PME GRID DIMENSIONS         160 160 88
Info: PME MAXIMUM GRID SPACING    1
Info: FULL ELECTROSTATIC EVALUATION FREQUENCY      4
Info: USING VERLET I (r-RESPA) MTS SCHEME.
Info: C1 SPLITTING OF LONG RANGE ELECTROSTATICS
Info: PLACING ATOMS IN PATCHES BY HYDROGEN GROUPS
Info: RIGID BONDS TO HYDROGEN : ALL
Info:         ERROR TOLERANCE : 1e-08
Info:          MAX ITERATIONS : 100
Info: RIGID WATER USING SETTLE ALGORITHM
Info: NONBONDED FORCES EVALUATED EVERY 2 STEPS
Info: RANDOM NUMBER SEED     1399009684
Info: USE HYDROGEN BONDS?    NO
Info: COORDINATE PDB         /home/jam2079/Pathrover/2x79/common/ionized.pdb
Info: STRUCTURE FILE         /home/jam2079/Pathrover/2x79/common/ionized.psf
Info: PARAMETER file: CHARMM format!
Info: PARAMETERS             /home/jam2079/Pathrover/2x79/common/parameters_all.prm
Info: USING ARITHMETIC MEAN TO COMBINE L-J SIGMA PARAMETERS
Info: SUMMARY OF PARAMETERS:
Info: 231 BONDS
Info: 615 ANGLES
Info: 936 DIHEDRAL
Info: 55 IMPROPER
Info: 6 CROSSTERM
Info: 152 VDW
Info: 0 VDW_PAIRS
Info: STRUCTURE SUMMARY:
Info: 173052 ATOMS
Info: 137795 BONDS
Info: 164816 ANGLES
Info: 181135 DIHEDRALS
Info: 2060 IMPROPERS
Info: 0 CROSSTERMS
Info: 0 EXCLUSIONS
Info: 121602 FIXED ATOMS
Info: 145197 RIGID BONDS
Info: 112857 RIGID BONDS BETWEEN FIXED ATOMS
Info: 122010 DEGREES OF FREEDOM
Info: 62622 HYDROGEN GROUPS
Info: 4 ATOMS IN LARGEST HYDROGEN GROUP
Info: 62622 MIGRATION GROUPS
Info: 4 ATOMS IN LARGEST MIGRATION GROUP
Info: 43512 HYDROGEN GROUPS WITH ALL ATOMS FIXED
Info: TOTAL MASS = 1.03371e+06 amu
Info: TOTAL CHARGE = 4.80842e-05 e
Info: MASS DENSITY = 0.7969 g/cm^3
Info: ATOM DENSITY = 0.0803385 atoms/A^3
Info: REMOVING COM VELOCITY 0.0131728 0.024485 0.0121409
Info: NONBONDED TABLE R-SQUARED SPACING: 0.0625
Info: NONBONDED TABLE SIZE: 769 POINTS
TCL: Minimizing for 5000 steps
ETITLE: TS BOND ANGLE DIHED IMPRP ELECT VDW BOUNDARY MISC KINETIC TOTAL TEMP POTENTIAL TOTAL3 TEMPAVG PRESSURE GPRESSURE VOLUME PRESSAVG GPRESSAVG
ENERGY: 0 5131.4287 28060.2091 22349.4301 279.6058 -1877744.0896 9999999999.9999 0.0000 0.0000 0.0000 9999999999.9999 0.0000 9999999999.9999 9999999999.9999 0.0000 9999999999.9999 9999999999.9999 2154035.2205 9999999999.9999 9999999999.9999
ENERGY: 1000 3357.9975 20531.4468 25907.8869 186.3277 -1877122.8289 -1338.1037 0.0000 0.0000 0.0000 -1828477.2737 0.0000 -1828477.2737 -1828477.2737 0.0000 2515.6248 2693.3019 2154035.2205 2515.6248 2693.3019
ENERGY: 2000 644.4988 6661.9988 22757.1389 127.2670 -1877993.6193 -15947.6593 0.0000 0.0000 0.0000 -1863750.3751 0.0000 -1863750.3751 -1863750.3751 0.0000 196.1155 198.1620 2154035.2205 196.1155 198.1620
ENERGY: 3000 577.9550 5692.5222 20873.5212 105.7239 -1878349.7304 -17805.6734 0.0000 0.0000 0.0000 -1868905.6815 0.0000 -1868905.6815 -1868905.6815 0.0000 2.0647 5.5606 2154035.2205 2.0647 5.5606
ENERGY: 4000 571.1155 5544.9306 20436.0322 99.7209 -1878435.3944 -18285.1503 0.0000 0.0000 0.0000 -1870068.7455 0.0000 -1870068.7455 -1870068.7455 0.0000 -26.0796 -25.1688 2154035.2205 -26.0796 -25.1688
ENERGY: 5000 569.4226 5490.0378 20276.5969 96.0113 -1878490.3257 -18585.3245 0.0000 0.0000 0.0000 -1870643.5817 0.0000 -1870643.5817 -1870643.5817 0.0000 -48.1497 -46.5739 2154035.2205 -48.1497 -46.5739
TCL: Running for 500000 steps
ETITLE: TS BOND ANGLE DIHED IMPRP ELECT VDW BOUNDARY MISC KINETIC TOTAL TEMP POTENTIAL TOTAL3 TEMPAVG PRESSURE GPRESSURE VOLUME PRESSAVG GPRESSAVG
ENERGY: 5000 520.5123 5528.0070 20277.1763 96.0935 -1878445.4674 -18560.0714 0.0000 0.0000 37863.8332 -1832719.9165 312.3342 -1870583.7497 -1832734.4752 312.3342 265.8763 357.8699 2154035.2205 265.8763 357.8699
ENERGY: 105000 5262.9731 29629.8664 23329.2992 318.0426 -1879487.7427 -16117.8306 0.0000 0.0000 37437.4952 -1799627.8967 308.8174 -1837065.3919 -1799435.6021 309.9951 -402.4162 -312.3848 2154035.2205 -19.3457 -19.7914
ENERGY: 205000 5272.3061 29534.8061 23215.9604 302.2051 -1879606.7456 -16371.6557 0.0000 0.0000 37403.9610 -1800249.1626 308.5408 -1837653.1236 -1800057.5957 309.3907 -447.7126 -364.6738 2154035.2205 -19.7645 -20.2321
ENERGY: 305000 5257.0159 29607.5080 23207.6235 318.3180 -1879626.1188 -16284.4361 0.0000 0.0000 37435.8157 -1800084.2738 308.8035 -1837520.0895 -1799900.1468 309.5679 -191.1750 -109.6705 2154035.2205 1.3010 0.8754
ENERGY: 405000 5269.7072 29546.2655 23144.2877 323.7627 -1879678.0616 -16392.1719 0.0000 0.0000 37512.0229 -1800274.1875 309.4322 -1837786.2104 -1800080.0227 309.1664 751.0142 838.4333 2154035.2205 -16.2001 -16.6091
ENERGY: 505000 5225.0563 29363.9757 23231.0161 338.1819 -1879677.0127 -16460.8598 0.0000 0.0000 37504.1414 -1800475.5012 309.3671 -1837979.6425 -1800285.6696 310.2152 8.7292 93.1084 2154035.2205 9.5735 9.1012
