Info: SIMULATION PARAMETERS:
Info: TIMESTEP               1
Info: NUMBER OF STEPS        0
Info: STEPS PER CYCLE        20
Info: PERIODIC CELL BASIS 1  125.09 0 0
Info: PERIODIC CELL BASIS 2  0 130.355 0
Info: PERIODIC CELL BASIS 3  0 0 135.847
Info: PERIODIC CELL CENTER   39.547 42.92 2.551
Info: WRAPPING ALL CLUSTERS AROUND PERIODIC BOUNDARIES ON OUTPUT.
Info: FIRST LDB TIMESTEP     100
Info: LAST LDB TIMESTEP     -1
Info: HOM BACKGROUND SCALING 1
Info: PME BACKGROUND SCALING 1
Info: MAX SELF PARTITIONS    20
Info: MAX PAIR PARTITIONS    8
Info: SELF PARTITION ATOMS   154
Info: SELF2 PARTITION ATOMS   154
Info: PAIR PARTITION ATOMS   318
Info: PAIR2 PARTITION ATOMS  637
Info: MIN ATOMS PER PATCH    100
Info: VELOCITY FILE          /home/jam2079/Pathrover/3tt3/phase2a/dat_equil_phase2a6.restart.vel
Info: CENTER OF MASS MOVING INITIALLY? NO
Info: DIELECTRIC             1
Info: EXCLUDE                SCALED ONE-FOUR
Info: 1-4 ELECTROSTATICS SCALED BY 1
Info: MODIFIED 1-4 VDW PARAMETERS WILL BE USED
Info: DCD FILENAME           ./dat_phase2b1.dcd
Info: DCD FREQUENCY          5000
Info: DCD FIRST STEP         5000
Info: DCD FILE WILL CONTAIN UNIT CELL DATA
Info: XST FILENAME           ./dat_phase2b1.xst
Info: XST FREQUENCY          5000
Info: NO VELOCITY DCD OUTPUT
Info: OUTPUT FILENAME        ./dat_phase2b1
Info: RESTART FILENAME       ./dat_phase2b1.restart
Info: RESTART FREQUENCY      5000
Info: BINARY RESTART FILES WILL BE USED
Info: SWITCHING ACTIVE
Info: SWITCHING ON           10
Info: SWITCHING OFF          12
Info: PAIRLIST DISTANCE      13.5
Info: PAIRLIST SHRINK RATE   0.01
Info: PAIRLIST GROW RATE     0.01
Info: PAIRLIST TRIGGER       0.3
Info: PAIRLISTS PER CYCLE    2
Info: PAIRLISTS ENABLED
Info: MARGIN                 1.5
Info: HYDROGEN GROUP CUTOFF  2.5
Info: PATCH DIMENSION        17.5
Info: ENERGY OUTPUT STEPS    5000
Info: CROSSTERM ENERGY INCLUDED IN DIHEDRAL
Info: TIMING OUTPUT STEPS    5000
Info: PRESSURE OUTPUT STEPS  5000
Info: HARMONIC CONSTRAINTS ACTIVE
Info: HARMONIC CONS EXP      2
Info: LANGEVIN DYNAMICS ACTIVE
Info: LANGEVIN TEMPERATURE   310
Info: LANGEVIN DAMPING COEFFICIENT IS 5 INVERSE PS
Info: LANGEVIN DYNAMICS NOT APPLIED TO HYDROGENS
Info: LANGEVIN PISTON PRESSURE CONTROL ACTIVE
Info:        TARGET PRESSURE IS 1.01325 BAR
Info:     OSCILLATION PERIOD IS 200 FS
Info:             DECAY TIME IS 50 FS
Info:     PISTON TEMPERATURE IS 310 K
Info:       PRESSURE CONTROL IS GROUP-BASED
Info:    INITIAL STRAIN RATE IS 7.16362e-06 7.16362e-06 -8.38528e-06
Info:       CELL FLUCTUATION IS ANISOTROPIC
Info:     SHAPE OF CELL IS CONSTRAINED IN X-Y PLANE
Info: PARTICLE MESH EWALD (PME) ACTIVE
Info: PME TOLERANCE               1e-06
Info: PME EWALD COEFFICIENT       0.257952
Info: PME INTERPOLATION ORDER     4
Info: PME GRID DIMENSIONS         128 132 144
Info: PME MAXIMUM GRID SPACING    1
Info: FULL ELECTROSTATIC EVALUATION FREQUENCY      4
Info: USING VERLET I (r-RESPA) MTS SCHEME.
Info: C1 SPLITTING OF LONG RANGE ELECTROSTATICS
Info: PLACING ATOMS IN PATCHES BY HYDROGEN GROUPS
Info: RIGID BONDS TO HYDROGEN : ALL
Info:         ERROR TOLERANCE : 1e-08
Info:          MAX ITERATIONS : 100
Info: RIGID WATER USING SETTLE ALGORITHM
Info: NONBONDED FORCES EVALUATED EVERY 2 STEPS
Info: RANDOM NUMBER SEED     1399900888
Info: USE HYDROGEN BONDS?    NO
Info: COORDINATE PDB         /home/jam2079/Pathrover/3tt3/phase2a/dat_equil_phase2a6.coor
Info: STRUCTURE FILE         /home/jam2079/Pathrover/3tt3/common/ionized.psf
Info: PARAMETER file: CHARMM format!
Info: PARAMETERS             /home/jam2079/Pathrover/3tt3/common/parameters_all.prm
Info: USING ARITHMETIC MEAN TO COMBINE L-J SIGMA PARAMETERS
Info: BINARY COORDINATES     /home/jam2079/Pathrover/3tt3/phase2a/dat_equil_phase2a6.restart.coor
Info: SUMMARY OF PARAMETERS:
Info: 231 BONDS
Info: 615 ANGLES
Info: 936 DIHEDRAL
Info: 55 IMPROPER
Info: 6 CROSSTERM
Info: 152 VDW
Info: 0 VDW_PAIRS
Info: STRUCTURE SUMMARY:
Info: 222884 ATOMS
Info: 173098 BONDS
Info: 191327 ANGLES
Info: 198094 DIHEDRALS
Info: 2265 IMPROPERS
Info: 0 CROSSTERMS
Info: 0 EXCLUSIONS
Info: 2061 CONSTRAINTS
Info: 192346 RIGID BONDS
Info: 476306 DEGREES OF FREEDOM
Info: 79781 HYDROGEN GROUPS
Info: 4 ATOMS IN LARGEST HYDROGEN GROUP
Info: 79781 MIGRATION GROUPS
Info: 4 ATOMS IN LARGEST MIGRATION GROUP
Info: TOTAL MASS = 1.33362e+06 amu
Info: TOTAL CHARGE = 5.30519e-05 e
Info: MASS DENSITY = 0.999747 g/cm^3
Info: ATOM DENSITY = 0.100619 atoms/A^3
Info: REMOVING COM VELOCITY 0.0278337 -0.0138815 0.0125476
Info: NONBONDED TABLE R-SQUARED SPACING: 0.0625
Info: NONBONDED TABLE SIZE: 769 POINTS
TCL: Minimizing for 2500 steps
ETITLE: TS BOND ANGLE DIHED IMPRP ELECT VDW BOUNDARY MISC KINETIC TOTAL TEMP POTENTIAL TOTAL3 TEMPAVG PRESSURE GPRESSURE VOLUME PRESSAVG GPRESSAVG
ENERGY: 0 8873.0783 44228.0330 30517.3504 578.1006 -605253.2051 25276.5410 334.3127 0.0000 0.0000 -495445.7891 0.0000 -495445.7891 -495445.7891 0.0000 12718.0487 -1740.7819 2215135.7108 12718.0487 -1740.7819
ENERGY: 500 23235.8550 24675.0278 25168.2237 80.2700 -816978.3663 50361.0201 233.0184 0.0000 0.0000 -693224.9512 0.0000 -693224.9512 -693224.9512 0.0000 -5174.3092 -5207.9146 2215135.7108 -5174.3092 -5207.9146
ENERGY: 1000 24039.2185 24651.4855 24829.2680 77.2880 -834367.6170 56496.9037 232.1309 0.0000 0.0000 -704041.3225 0.0000 -704041.3225 -704041.3225 0.0000 -4852.6390 -4878.5148 2215135.7108 -4852.6390 -4878.5148
ENERGY: 1500 24445.3783 24805.7408 24722.6500 76.6138 -842030.8359 59914.4795 232.2310 0.0000 0.0000 -707833.7426 0.0000 -707833.7426 -707833.7426 0.0000 -4563.5124 -4567.9084 2215135.7108 -4563.5124 -4567.9084
ENERGY: 2000 24669.5872 24864.8266 24682.0127 76.0662 -846159.6511 61915.1846 233.3242 0.0000 0.0000 -709718.6496 0.0000 -709718.6496 -709718.6496 0.0000 -4364.0665 -4355.2938 2215135.7108 -4364.0665 -4355.2938
ENERGY: 2500 24744.2193 24929.9210 24663.0201 75.9185 -848218.6768 62754.0075 233.6898 0.0000 0.0000 -710817.9005 0.0000 -710817.9005 -710817.9005 0.0000 -4270.5320 -4267.7928 2215135.7108 -4270.5320 -4267.7928
TCL: Running for 500000 steps
ETITLE: TS BOND ANGLE DIHED IMPRP ELECT VDW BOUNDARY MISC KINETIC TOTAL TEMP POTENTIAL TOTAL3 TEMPAVG PRESSURE GPRESSURE VOLUME PRESSAVG GPRESSAVG
ENERGY: 5000 8706.5602 43314.2981 30306.9371 551.9188 -616842.9230 28206.1842 330.4215 0.0000 141511.7548 -363914.8483 299.0177 -505426.6030 -363557.1162 265.0619 -14621.6509 80.3242 2203484.1249 -9.1634 -3.2601
ENERGY: 105000 8866.4886 44454.1427 30318.5328 605.1204 -607532.0840 24966.4989 310.2680 0.0000 146019.9530 -351991.0797 308.5436 -498011.0327 -351648.0828 309.8478 -14496.0919 94.5142 2177643.7461 3.0328 3.0203
ENERGY: 205000 8843.8595 44285.4691 30390.8141 562.5458 -607495.5472 25116.8842 303.6287 0.0000 146277.0057 -351715.3402 309.0868 -497992.3459 -351349.8966 309.5547 -14474.4901 88.8819 2179030.5504 5.1692 5.0442
ENERGY: 300000 8715.9330 44486.7903 30287.0822 586.5918 -607198.8212 24917.2541 289.2728 0.0000 146350.6564 -351565.2407 309.2424 -497915.8971 -351187.0353 310.0138 -14616.4144 -69.4603 2181069.7470 4.4146 4.4030
ENERGY: 400000 8758.1602 44029.1573 30264.4009 534.9083 -605916.0081 24199.8639 308.2343 0.0000 146877.1193 -350944.1640 310.3548 -497821.2833 -350582.4335 309.8561 -14639.5812 -111.9899 2177969.1384 -1.8161 -1.8315
ENERGY: 500000 8794.1218 44176.3145 30219.2645 570.3894 -607234.9514 25287.0753 312.7426 0.0000 146578.3190 -351296.7244 309.7234 -497875.0434 -350971.3141 310.0754 -14496.6693 59.7947 2178902.5296 0.7621 0.7186
