Info: SIMULATION PARAMETERS:
Info: TIMESTEP               1
Info: NUMBER OF STEPS        2000000
Info: STEPS PER CYCLE        20
Info: PERIODIC CELL BASIS 1  144.803 0 0
Info: PERIODIC CELL BASIS 2  0 146.581 0
Info: PERIODIC CELL BASIS 3  0 0 117.601
Info: PERIODIC CELL CENTER   39.757 40.344 2.181
Info: WRAPPING ALL CLUSTERS AROUND PERIODIC BOUNDARIES ON OUTPUT.
Info: FIRST LDB TIMESTEP     100
Info: LAST LDB TIMESTEP     -1
Info: HOM BACKGROUND SCALING 1
Info: PME BACKGROUND SCALING 1
Info: REMOVING PATCHES FROM PROCESSOR 0
Info: MIN ATOMS PER PATCH    40
Info: VELOCITY FILE          ../phase2b/dat_phase2b1.restart.vel
Info: CENTER OF MASS MOVING INITIALLY? NO
Info: DIELECTRIC             1
Info: EXCLUDE                SCALED ONE-FOUR
Info: 1-4 ELECTROSTATICS SCALED BY 1
Info: MODIFIED 1-4 VDW PARAMETERS WILL BE USED
Info: DCD FILENAME           ./dat_phase2b2.dcd
Info: DCD FREQUENCY          5000
Info: DCD FIRST STEP         2005000
Info: DCD FILE WILL CONTAIN UNIT CELL DATA
Info: XST FILENAME           ./dat_phase2b2.xst
Info: XST FREQUENCY          5000
Info: NO VELOCITY DCD OUTPUT
Info: NO FORCE DCD OUTPUT
Info: OUTPUT FILENAME        ./dat_phase2b2
Info: RESTART FILENAME       ./dat_phase2b2.restart
Info: RESTART FREQUENCY      5000
Info: BINARY RESTART FILES WILL BE USED
Info: SWITCHING ACTIVE
Info: SWITCHING ON           10
Info: SWITCHING OFF          12
Info: PAIRLIST DISTANCE      13.5
Info: PAIRLIST SHRINK RATE   0.01
Info: PAIRLIST GROW RATE     0.01
Info: PAIRLIST TRIGGER       0.3
Info: PAIRLISTS PER CYCLE    2
Info: PAIRLISTS ENABLED
Info: MARGIN                 1.5
Info: HYDROGEN GROUP CUTOFF  2.5
Info: PATCH DIMENSION        17.5
Info: ENERGY OUTPUT STEPS    5000
Info: CROSSTERM ENERGY INCLUDED IN DIHEDRAL
Info: TIMING OUTPUT STEPS    5000
Info: PRESSURE OUTPUT STEPS  5000
Info: HARMONIC CONSTRAINTS ACTIVE
Info: HARMONIC CONS EXP      2
Info: LANGEVIN DYNAMICS ACTIVE
Info: LANGEVIN TEMPERATURE   310
Info: LANGEVIN DAMPING COEFFICIENT IS 5 INVERSE PS
Info: LANGEVIN DYNAMICS NOT APPLIED TO HYDROGENS
Info: LANGEVIN PISTON PRESSURE CONTROL ACTIVE
Info:        TARGET PRESSURE IS 1.01325 BAR
Info:     OSCILLATION PERIOD IS 200 FS
Info:             DECAY TIME IS 50 FS
Info:     PISTON TEMPERATURE IS 310 K
Info:       PRESSURE CONTROL IS GROUP-BASED
Info:    INITIAL STRAIN RATE IS -1.30398e-05 -1.30398e-05 -6.87282e-06
Info:       CELL FLUCTUATION IS ANISOTROPIC
Info:     SHAPE OF CELL IS CONSTRAINED IN X-Y PLANE
Info: PARTICLE MESH EWALD (PME) ACTIVE
Info: PME TOLERANCE               1e-06
Info: PME EWALD COEFFICIENT       0.257952
Info: PME INTERPOLATION ORDER     4
Info: PME GRID DIMENSIONS         160 160 120
Info: PME MAXIMUM GRID SPACING    1
Info: FULL ELECTROSTATIC EVALUATION FREQUENCY      4
Info: USING VERLET I (r-RESPA) MTS SCHEME.
Info: C1 SPLITTING OF LONG RANGE ELECTROSTATICS
Info: PLACING ATOMS IN PATCHES BY HYDROGEN GROUPS
Info: RIGID BONDS TO HYDROGEN : ALL
Info:         ERROR TOLERANCE : 1e-08
Info:          MAX ITERATIONS : 100
Info: RIGID WATER USING SETTLE ALGORITHM
Info: NONBONDED FORCES EVALUATED EVERY 2 STEPS
Info: RANDOM NUMBER SEED     1404455722
Info: USE HYDROGEN BONDS?    NO
Info: COORDINATE PDB         ../phase2b/dat_phase2b1.coor
Info: STRUCTURE FILE         ../common/ionized.psf
Info: PARAMETER file: CHARMM format!
Info: PARAMETERS             ../common/parameters_all.prm
Info: USING ARITHMETIC MEAN TO COMBINE L-J SIGMA PARAMETERS
Info: BINARY COORDINATES     ../phase2b/dat_phase2b1.restart.coor
Info: FIRST TIMESTEP         2000000
Info: SUMMARY OF PARAMETERS:
Info: 231 BONDS
Info: 615 ANGLES
Info: 936 DIHEDRAL
Info: 55 IMPROPER
Info: 6 CROSSTERM
Info: 152 VDW
Info: 0 VDW_PAIRS
Info: 0 NBTHOLE_PAIRS
Info: STRUCTURE SUMMARY:
Info: 256039 ATOMS
Info: 201645 BONDS
Info: 233451 ANGLES
Info: 250328 DIHEDRALS
Info: 2581 IMPROPERS
Info: 0 CROSSTERMS
Info: 0 EXCLUSIONS
Info: 2063 CONSTRAINTS
Info: 217662 RIGID BONDS
Info: 550455 DEGREES OF FREEDOM
Info: 92055 HYDROGEN GROUPS
Info: 4 ATOMS IN LARGEST HYDROGEN GROUP
Info: 92055 MIGRATION GROUPS
Info: 4 ATOMS IN LARGEST MIGRATION GROUP
Info: TOTAL MASS = 1.5284e+06 amu
Info: TOTAL CHARGE = -0.999933 e
Info: MASS DENSITY = 1.01679 g/cm^3
Info: ATOM DENSITY = 0.102575 atoms/A^3
Info: REMOVING COM VELOCITY 0.00638688 -0.0113399 0.0111868
Info: NONBONDED TABLE R-SQUARED SPACING: 0.0625
Info: NONBONDED TABLE SIZE: 769 POINTS
TCL: Running for 500000 steps
ETITLE: TS BOND ANGLE DIHED IMPRP ELECT VDW BOUNDARY MISC KINETIC TOTAL TEMP POTENTIAL TOTAL3 TEMPAVG PRESSURE GPRESSURE VOLUME PRESSAVG GPRESSAVG
ENERGY: 2000000 10887.4717 56077.2482 38586.5198 667.2551 -671475.3545 22385.7816 120.0580 0.0000 169153.6122 -373597.4078 309.2786 -542751.0200 -373169.4070 309.2786 -13774.5795 127.6447 2496124.5660 -13774.5795 127.6447
ENERGY: 2100000 10988.1711 56210.2341 38486.1654 679.0136 -671686.4742 22033.1354 175.7749 0.0000 169295.8346 -373818.1451 309.5386 -543113.9797 -373393.2650 309.8969 -13879.6269 21.4425 2497864.6112 -2.5013 -2.5021
ENERGY: 2200000 11028.5268 56032.9108 38295.0856 643.2066 -671927.5834 22373.3828 184.2583 0.0000 169829.5239 -373540.6886 310.5144 -543370.2125 -373125.5723 309.9973 -14054.0353 -154.6436 2497368.0496 0.8857 0.8833
ENERGY: 2300000 10909.1412 55786.6218 38474.8542 633.7915 -671477.4369 21926.8131 181.7449 0.0000 169321.4673 -374243.0029 309.5855 -543564.4702 -373822.8022 309.6177 -13934.7199 -43.7106 2497916.5202 -2.5994 -2.6337
ENERGY: 2400000 10909.5572 55855.3082 38490.3785 668.0280 -671991.4161 22402.1471 162.7282 0.0000 169096.1292 -374407.1396 309.1735 -543503.2688 -373984.4339 309.4654 -13878.4179 18.3869 2498711.9034 -2.5043 -2.5054
ENERGY: 2500000 10885.0928 55930.7612 38352.7506 656.6370 -671983.8058 22434.1062 176.9367 0.0000 169228.8738 -374318.6475 309.4162 -543547.5212 -373879.4000 310.2075 -13871.0444 45.1986 2493913.5141 3.3830 3.3557
