Info: SIMULATION PARAMETERS:
Info: TIMESTEP               1
Info: NUMBER OF STEPS        0
Info: STEPS PER CYCLE        20
Info: PERIODIC CELL BASIS 1  141.974 0 0
Info: PERIODIC CELL BASIS 2  0 143.717 0
Info: PERIODIC CELL BASIS 3  0 0 123.985
Info: PERIODIC CELL CENTER   39.757 40.344 2.181
Info: WRAPPING ALL CLUSTERS AROUND PERIODIC BOUNDARIES ON OUTPUT.
Info: FIRST LDB TIMESTEP     100
Info: LAST LDB TIMESTEP     -1
Info: HOM BACKGROUND SCALING 1
Info: PME BACKGROUND SCALING 1
Info: REMOVING PATCHES FROM PROCESSOR 0
Info: MIN ATOMS PER PATCH    40
Info: VELOCITY FILE          ../phase2a/dat_equil_phase2a6.restart.vel
Info: CENTER OF MASS MOVING INITIALLY? NO
Info: DIELECTRIC             1
Info: EXCLUDE                SCALED ONE-FOUR
Info: 1-4 ELECTROSTATICS SCALED BY 1
Info: MODIFIED 1-4 VDW PARAMETERS WILL BE USED
Info: DCD FILENAME           ./dat_phase2b1.dcd
Info: DCD FREQUENCY          5000
Info: DCD FIRST STEP         5000
Info: DCD FILE WILL CONTAIN UNIT CELL DATA
Info: XST FILENAME           ./dat_phase2b1.xst
Info: XST FREQUENCY          5000
Info: NO VELOCITY DCD OUTPUT
Info: NO FORCE DCD OUTPUT
Info: OUTPUT FILENAME        ./dat_phase2b1
Info: RESTART FILENAME       ./dat_phase2b1.restart
Info: RESTART FREQUENCY      5000
Info: BINARY RESTART FILES WILL BE USED
Info: SWITCHING ACTIVE
Info: SWITCHING ON           10
Info: SWITCHING OFF          12
Info: PAIRLIST DISTANCE      13.5
Info: PAIRLIST SHRINK RATE   0.01
Info: PAIRLIST GROW RATE     0.01
Info: PAIRLIST TRIGGER       0.3
Info: PAIRLISTS PER CYCLE    2
Info: PAIRLISTS ENABLED
Info: MARGIN                 1.5
Info: HYDROGEN GROUP CUTOFF  2.5
Info: PATCH DIMENSION        17.5
Info: ENERGY OUTPUT STEPS    5000
Info: CROSSTERM ENERGY INCLUDED IN DIHEDRAL
Info: TIMING OUTPUT STEPS    5000
Info: PRESSURE OUTPUT STEPS  5000
Info: HARMONIC CONSTRAINTS ACTIVE
Info: HARMONIC CONS EXP      2
Info: LANGEVIN DYNAMICS ACTIVE
Info: LANGEVIN TEMPERATURE   310
Info: LANGEVIN DAMPING COEFFICIENT IS 5 INVERSE PS
Info: LANGEVIN DYNAMICS NOT APPLIED TO HYDROGENS
Info: LANGEVIN PISTON PRESSURE CONTROL ACTIVE
Info:        TARGET PRESSURE IS 1.01325 BAR
Info:     OSCILLATION PERIOD IS 200 FS
Info:             DECAY TIME IS 50 FS
Info:     PISTON TEMPERATURE IS 310 K
Info:       PRESSURE CONTROL IS GROUP-BASED
Info:    INITIAL STRAIN RATE IS 1.90409e-05 1.90409e-05 -1.90819e-05
Info:       CELL FLUCTUATION IS ANISOTROPIC
Info:     SHAPE OF CELL IS CONSTRAINED IN X-Y PLANE
Info: PARTICLE MESH EWALD (PME) ACTIVE
Info: PME TOLERANCE               1e-06
Info: PME EWALD COEFFICIENT       0.257952
Info: PME INTERPOLATION ORDER     4
Info: PME GRID DIMENSIONS         144 144 128
Info: PME MAXIMUM GRID SPACING    1
Info: FULL ELECTROSTATIC EVALUATION FREQUENCY      4
Info: USING VERLET I (r-RESPA) MTS SCHEME.
Info: C1 SPLITTING OF LONG RANGE ELECTROSTATICS
Info: PLACING ATOMS IN PATCHES BY HYDROGEN GROUPS
Info: RIGID BONDS TO HYDROGEN : ALL
Info:         ERROR TOLERANCE : 1e-08
Info:          MAX ITERATIONS : 100
Info: RIGID WATER USING SETTLE ALGORITHM
Info: NONBONDED FORCES EVALUATED EVERY 2 STEPS
Info: RANDOM NUMBER SEED     1404408045
Info: USE HYDROGEN BONDS?    NO
Info: COORDINATE PDB         ../phase2a/dat_equil_phase2a6.coor
Info: STRUCTURE FILE         ../common/ionized.psf
Info: PARAMETER file: CHARMM format!
Info: PARAMETERS             ../common/parameters_all.prm
Info: USING ARITHMETIC MEAN TO COMBINE L-J SIGMA PARAMETERS
Info: BINARY COORDINATES     ../phase2a/dat_equil_phase2a6.restart.coor
Info: SUMMARY OF PARAMETERS:
Info: 231 BONDS
Info: 615 ANGLES
Info: 936 DIHEDRAL
Info: 55 IMPROPER
Info: 6 CROSSTERM
Info: 152 VDW
Info: 0 VDW_PAIRS
Info: 0 NBTHOLE_PAIRS
Info: STRUCTURE SUMMARY:
Info: 256039 ATOMS
Info: 201645 BONDS
Info: 233451 ANGLES
Info: 250328 DIHEDRALS
Info: 2581 IMPROPERS
Info: 0 CROSSTERMS
Info: 0 EXCLUSIONS
Info: 2063 CONSTRAINTS
Info: 217662 RIGID BONDS
Info: 550455 DEGREES OF FREEDOM
Info: 92055 HYDROGEN GROUPS
Info: 4 ATOMS IN LARGEST HYDROGEN GROUP
Info: 92055 MIGRATION GROUPS
Info: 4 ATOMS IN LARGEST MIGRATION GROUP
Info: TOTAL MASS = 1.5284e+06 amu
Info: TOTAL CHARGE = -0.999933 e
Info: MASS DENSITY = 1.00325 g/cm^3
Info: ATOM DENSITY = 0.101209 atoms/A^3
Info: REMOVING COM VELOCITY -0.00824345 -0.0110528 0.000380963
Info: NONBONDED TABLE R-SQUARED SPACING: 0.0625
Info: NONBONDED TABLE SIZE: 769 POINTS
TCL: Minimizing for 2500 steps
ETITLE: TS BOND ANGLE DIHED IMPRP ELECT VDW BOUNDARY MISC KINETIC TOTAL TEMP POTENTIAL TOTAL3 TEMPAVG PRESSURE GPRESSURE VOLUME PRESSAVG GPRESSAVG
ENERGY: 0 10846.9679 56077.4872 38649.1355 632.5096 -670217.0300 22837.2418 253.4879 0.0000 0.0000 -540920.2001 0.0000 -540920.2001 -540920.2001 0.0000 12248.2095 -1659.4598 2529799.5312 12248.2095 -1659.4598
ENERGY: 500 25310.3964 28253.5350 32030.8506 89.5955 -899933.4774 47914.6912 151.7016 0.0000 0.0000 -766182.7070 0.0000 -766182.7070 -766182.7070 0.0000 -5215.7033 -5263.0937 2529799.5312 -5215.7033 -5263.0937
ENERGY: 1000 27203.3620 28620.5855 31540.7223 89.1752 -921805.2804 55948.4766 143.2094 0.0000 0.0000 -778259.7495 0.0000 -778259.7495 -778259.7495 0.0000 -5077.8737 -4826.3002 2529799.5312 -5077.8737 -4826.3002
ENERGY: 1500 26874.4927 28540.7372 31366.6236 84.0995 -929647.0432 59784.1670 142.0016 0.0000 0.0000 -782854.9216 0.0000 -782854.9216 -782854.9216 0.0000 -4487.2137 -4471.2387 2529799.5312 -4487.2137 -4471.2387
ENERGY: 2000 27095.4259 28639.9738 31303.1038 84.0665 -933932.0454 61677.8867 142.7221 0.0000 0.0000 -784988.8666 0.0000 -784988.8666 -784988.8666 0.0000 -4302.6359 -4292.2085 2529799.5312 -4302.6359 -4292.2085
ENERGY: 2500 27132.3182 28642.2801 31277.1810 84.0195 -936104.9295 62560.1678 143.6709 0.0000 0.0000 -786265.2922 0.0000 -786265.2922 -786265.2922 0.0000 -4201.0500 -4198.7408 2529799.5312 -4201.0500 -4198.7408
TCL: Running for 500000 steps
ETITLE: TS BOND ANGLE DIHED IMPRP ELECT VDW BOUNDARY MISC KINETIC TOTAL TEMP POTENTIAL TOTAL3 TEMPAVG PRESSURE GPRESSURE VOLUME PRESSAVG GPRESSAVG
ENERGY: 5000 10857.9390 54498.3632 38587.1411 644.0562 -684203.3597 26588.2785 256.3503 0.0000 163603.8561 -389167.3754 299.1315 -552771.2315 -388777.3466 265.3555 -14021.5344 85.7416 2522095.4686 -10.4691 -4.7936
ENERGY: 105000 10867.1110 56101.4959 38460.7579 672.4257 -671669.8761 22456.9363 241.9843 0.0000 168757.1646 -374112.0004 308.5537 -542869.1651 -373703.8237 309.7912 -14088.6720 -190.7107 2500090.0061 3.7705 3.8213
ENERGY: 205000 10823.8168 56234.0300 38345.2754 636.1672 -672174.2082 22723.3223 241.0186 0.0000 169311.5467 -373859.0313 309.5673 -543170.5779 -373455.1358 309.7338 -13838.6298 68.4217 2496502.0309 1.8263 1.8042
ENERGY: 300000 11062.4456 56206.5428 38454.1333 642.4588 -671939.5764 22077.0915 240.2114 0.0000 168941.4785 -374315.2147 308.8907 -543256.6932 -373891.0424 309.8016 -14015.0382 -101.8106 2494506.8085 -1.3121 -1.2619
ENERGY: 400000 10773.7373 56103.1467 38409.0669 674.1149 -671977.5154 22520.2907 231.9568 0.0000 169182.7028 -374082.4991 309.3318 -543265.2019 -373662.5097 309.9062 -13879.6887 34.6780 2496232.1679 4.4219 4.4028
ENERGY: 500000 10887.4717 56077.2482 38586.5198 667.2551 -671480.7288 22390.5815 240.1160 0.0000 169165.1004 -373466.4360 309.2996 -542631.5364 -373033.2467 309.7727 -13790.2807 109.9037 2496109.6481 0.3758 0.2567
