Info: SIMULATION PARAMETERS:
Info: TIMESTEP               1
Info: NUMBER OF STEPS        0
Info: STEPS PER CYCLE        20
Info: PERIODIC CELL BASIS 1  169.368 0 0
Info: PERIODIC CELL BASIS 2  0 176.496 0
Info: PERIODIC CELL BASIS 3  0 0 92.759
Info: PERIODIC CELL CENTER   39.547 42.92 2.551
Info: WRAPPING ALL CLUSTERS AROUND PERIODIC BOUNDARIES ON OUTPUT.
Info: FIRST LDB TIMESTEP     100
Info: LAST LDB TIMESTEP     -1
Info: HOM BACKGROUND SCALING 1
Info: PME BACKGROUND SCALING 1
Info: MAX SELF PARTITIONS    20
Info: MAX PAIR PARTITIONS    8
Info: SELF PARTITION ATOMS   154
Info: SELF2 PARTITION ATOMS   154
Info: PAIR PARTITION ATOMS   318
Info: PAIR2 PARTITION ATOMS  637
Info: MIN ATOMS PER PATCH    100
Info: INITIAL TEMPERATURE    310
Info: CENTER OF MASS MOVING INITIALLY? NO
Info: DIELECTRIC             1
Info: EXCLUDE                SCALED ONE-FOUR
Info: 1-4 ELECTROSTATICS SCALED BY 1
Info: MODIFIED 1-4 VDW PARAMETERS WILL BE USED
Info: DCD FILENAME           ./dat_phase1.dcd
Info: DCD FREQUENCY          5000
Info: DCD FIRST STEP         5000
Info: DCD FILE WILL CONTAIN UNIT CELL DATA
Info: XST FILENAME           ./dat_phase1.xst
Info: XST FREQUENCY          5000
Info: NO VELOCITY DCD OUTPUT
Info: OUTPUT FILENAME        ./dat_phase1
Info: RESTART FILENAME       ./dat_phase1.restart
Info: RESTART FREQUENCY      5000
Info: BINARY RESTART FILES WILL BE USED
Info: SWITCHING ACTIVE
Info: SWITCHING ON           10
Info: SWITCHING OFF          12
Info: PAIRLIST DISTANCE      13.5
Info: PAIRLIST SHRINK RATE   0.01
Info: PAIRLIST GROW RATE     0.01
Info: PAIRLIST TRIGGER       0.3
Info: PAIRLISTS PER CYCLE    2
Info: PAIRLISTS ENABLED
Info: MARGIN                 1.5
Info: HYDROGEN GROUP CUTOFF  2.5
Info: PATCH DIMENSION        17.5
Info: ENERGY OUTPUT STEPS    5000
Info: CROSSTERM ENERGY INCLUDED IN DIHEDRAL
Info: TIMING OUTPUT STEPS    5000
Info: PRESSURE OUTPUT STEPS  5000
Info: FIXED ATOMS ACTIVE
Info: LANGEVIN DYNAMICS ACTIVE
Info: LANGEVIN TEMPERATURE   310
Info: LANGEVIN DAMPING COEFFICIENT IS 5 INVERSE PS
Info: LANGEVIN DYNAMICS NOT APPLIED TO HYDROGENS
Info: PARTICLE MESH EWALD (PME) ACTIVE
Info: PME TOLERANCE               1e-06
Info: PME EWALD COEFFICIENT       0.257952
Info: PME INTERPOLATION ORDER     4
Info: PME GRID DIMENSIONS         176 180 96
Info: PME MAXIMUM GRID SPACING    1
Info: FULL ELECTROSTATIC EVALUATION FREQUENCY      4
Info: USING VERLET I (r-RESPA) MTS SCHEME.
Info: C1 SPLITTING OF LONG RANGE ELECTROSTATICS
Info: PLACING ATOMS IN PATCHES BY HYDROGEN GROUPS
Info: RIGID BONDS TO HYDROGEN : ALL
Info:         ERROR TOLERANCE : 1e-08
Info:          MAX ITERATIONS : 100
Info: RIGID WATER USING SETTLE ALGORITHM
Info: NONBONDED FORCES EVALUATED EVERY 2 STEPS
Info: RANDOM NUMBER SEED     1399235437
Info: USE HYDROGEN BONDS?    NO
Info: COORDINATE PDB         /home/jam2079/Pathrover/3tt3/common/ionized.pdb
Info: STRUCTURE FILE         /home/jam2079/Pathrover/3tt3/common/ionized.psf
Info: PARAMETER file: CHARMM format!
Info: PARAMETERS             /home/jam2079/Pathrover/3tt3/common/parameters_all.prm
Info: USING ARITHMETIC MEAN TO COMBINE L-J SIGMA PARAMETERS
Info: SUMMARY OF PARAMETERS:
Info: 231 BONDS
Info: 615 ANGLES
Info: 936 DIHEDRAL
Info: 55 IMPROPER
Info: 6 CROSSTERM
Info: 152 VDW
Info: 0 VDW_PAIRS
Info: STRUCTURE SUMMARY:
Info: 222884 ATOMS
Info: 173098 BONDS
Info: 191327 ANGLES
Info: 198094 DIHEDRALS
Info: 2265 IMPROPERS
Info: 0 CROSSTERMS
Info: 0 EXCLUSIONS
Info: 167024 FIXED ATOMS
Info: 192346 RIGID BONDS
Info: 157234 RIGID BONDS BETWEEN FIXED ATOMS
Info: 132468 DEGREES OF FREEDOM
Info: 79781 HYDROGEN GROUPS
Info: 4 ATOMS IN LARGEST HYDROGEN GROUP
Info: 79781 MIGRATION GROUPS
Info: 4 ATOMS IN LARGEST MIGRATION GROUP
Info: 59033 HYDROGEN GROUPS WITH ALL ATOMS FIXED
Info: TOTAL MASS = 1.33362e+06 amu
Info: TOTAL CHARGE = 5.30519e-05 e
Info: MASS DENSITY = 0.798672 g/cm^3
Info: ATOM DENSITY = 0.0803816 atoms/A^3
Info: REMOVING COM VELOCITY -0.00888361 -0.0184467 0.00638112
Info: NONBONDED TABLE R-SQUARED SPACING: 0.0625
Info: NONBONDED TABLE SIZE: 769 POINTS
TCL: Minimizing for 5000 steps
ETITLE: TS BOND ANGLE DIHED IMPRP ELECT VDW BOUNDARY MISC KINETIC TOTAL TEMP POTENTIAL TOTAL3 TEMPAVG PRESSURE GPRESSURE VOLUME PRESSAVG GPRESSAVG
ENERGY: 0 1443814.7566 175696.7138 24286.6640 281.3249 -2611883.4069 9999999999.9999 0.0000 0.0000 0.0000 9999999999.9999 0.0000 9999999999.9999 9999999999.9999 0.0000 9999999999.9999 9999999999.9999 2772823.6914 9999999999.9999 9999999999.9999
ENERGY: 1000 8249.1866 41127.5102 28831.0603 261.8391 -2611142.4130 19975.0609 0.0000 0.0000 0.0000 -2512697.7559 0.0000 -2512697.7559 -2512697.7559 0.0000 4740.6756 4957.0153 2772823.6914 4740.6756 4957.0153
ENERGY: 2000 1216.2409 10842.0106 26935.8428 163.1196 -2612415.9593 -12574.5963 0.0000 0.0000 0.0000 -2585833.3418 0.0000 -2585833.3418 -2585833.3418 0.0000 812.1519 838.3407 2772823.6914 812.1519 838.3407
ENERGY: 3000 567.7834 6482.1942 23494.6558 117.2562 -2613370.9620 -18587.5052 0.0000 0.0000 0.0000 -2601296.5777 0.0000 -2601296.5777 -2601296.5777 0.0000 120.0088 115.8594 2772823.6914 120.0088 115.8594
ENERGY: 4000 551.9623 6137.4343 22520.0929 102.1682 -2613593.7818 -19494.1942 0.0000 0.0000 0.0000 -2603776.3184 0.0000 -2603776.3184 -2603776.3184 0.0000 76.6118 74.9793 2772823.6914 76.6118 74.9793
ENERGY: 5000 547.9489 6018.8454 22262.8454 96.0386 -2613702.2733 -19882.4773 0.0000 0.0000 0.0000 -2604659.0723 0.0000 -2604659.0723 -2604659.0723 0.0000 55.0240 57.9654 2772823.6914 55.0240 57.9654
TCL: Running for 500000 steps
ETITLE: TS BOND ANGLE DIHED IMPRP ELECT VDW BOUNDARY MISC KINETIC TOTAL TEMP POTENTIAL TOTAL3 TEMPAVG PRESSURE GPRESSURE VOLUME PRESSAVG GPRESSAVG
ENERGY: 5000 490.2817 6061.6700 22263.4622 96.0949 -2613652.5288 -19847.9065 0.0000 0.0000 40822.6973 -2563766.2292 310.1567 -2604588.9264 -2563783.4590 310.1567 309.7504 388.7552 2772823.6914 309.7504 388.7552
ENERGY: 105000 5643.0812 31970.3421 25391.8359 322.2018 -2614736.8496 -17505.8378 0.0000 0.0000 40755.7893 -2528159.4371 309.6483 -2568915.2264 -2527929.3671 309.8974 -224.3372 -148.1612 2772823.6914 90.5962 90.1415
ENERGY: 205000 5495.7386 31982.1824 25371.5799 340.2127 -2614926.5943 -17559.3680 0.0000 0.0000 40935.7084 -2528360.5402 311.0153 -2569296.2485 -2528124.3417 310.3518 352.1541 426.5804 2772823.6914 104.4310 103.9263
ENERGY: 305000 5646.9092 32015.0832 25479.7061 312.9700 -2615061.6536 -17693.9294 0.0000 0.0000 40836.4709 -2528464.4435 310.2613 -2569300.9145 -2528229.9208 309.8103 -106.1441 -28.4071 2772823.6914 104.9407 104.4540
ENERGY: 405000 5705.1062 31931.9840 25234.1087 327.7182 -2615089.6781 -17810.7181 0.0000 0.0000 40790.8659 -2528910.6131 309.9148 -2569701.4790 -2528683.0280 310.1022 -170.7789 -100.9425 2772823.6914 52.0498 51.5361
ENERGY: 505000 5630.5623 31927.8638 25364.5452 342.0618 -2615125.5465 -17892.5321 0.0000 0.0000 40971.7705 -2528781.2750 311.2893 -2569753.0455 -2528553.8099 309.9809 -233.7352 -159.2938 2772823.6914 73.8662 73.4194
