Info: SIMULATION PARAMETERS:
Info: TIMESTEP               1
Info: NUMBER OF STEPS        0
Info: STEPS PER CYCLE        20
Info: PERIODIC CELL BASIS 1  120.88 0 0
Info: PERIODIC CELL BASIS 2  0 121.963 0
Info: PERIODIC CELL BASIS 3  0 0 116.155
Info: PERIODIC CELL CENTER   -0.424 0.217 0.822
Info: WRAPPING ALL CLUSTERS AROUND PERIODIC BOUNDARIES ON OUTPUT.
Info: FIRST LDB TIMESTEP     100
Info: LAST LDB TIMESTEP     -1
Info: HOM BACKGROUND SCALING 1
Info: PME BACKGROUND SCALING 1
Info: MAX SELF PARTITIONS    20
Info: MAX PAIR PARTITIONS    8
Info: SELF PARTITION ATOMS   154
Info: SELF2 PARTITION ATOMS   154
Info: PAIR PARTITION ATOMS   318
Info: PAIR2 PARTITION ATOMS  637
Info: MIN ATOMS PER PATCH    100
Info: VELOCITY FILE          /home/jam2079/Pathrover/2x79/phase2a/dat_equil_phase2a6.restart.vel
Info: CENTER OF MASS MOVING INITIALLY? NO
Info: DIELECTRIC             1
Info: EXCLUDE                SCALED ONE-FOUR
Info: 1-4 ELECTROSTATICS SCALED BY 1
Info: MODIFIED 1-4 VDW PARAMETERS WILL BE USED
Info: DCD FILENAME           ./dat_phase2b1.dcd
Info: DCD FREQUENCY          5000
Info: DCD FIRST STEP         5000
Info: DCD FILE WILL CONTAIN UNIT CELL DATA
Info: XST FILENAME           ./dat_phase2b1.xst
Info: XST FREQUENCY          5000
Info: NO VELOCITY DCD OUTPUT
Info: OUTPUT FILENAME        ./dat_phase2b1
Info: RESTART FILENAME       ./dat_phase2b1.restart
Info: RESTART FREQUENCY      5000
Info: BINARY RESTART FILES WILL BE USED
Info: SWITCHING ACTIVE
Info: SWITCHING ON           10
Info: SWITCHING OFF          12
Info: PAIRLIST DISTANCE      13.5
Info: PAIRLIST SHRINK RATE   0.01
Info: PAIRLIST GROW RATE     0.01
Info: PAIRLIST TRIGGER       0.3
Info: PAIRLISTS PER CYCLE    2
Info: PAIRLISTS ENABLED
Info: MARGIN                 1.5
Info: HYDROGEN GROUP CUTOFF  2.5
Info: PATCH DIMENSION        17.5
Info: ENERGY OUTPUT STEPS    5000
Info: CROSSTERM ENERGY INCLUDED IN DIHEDRAL
Info: TIMING OUTPUT STEPS    5000
Info: PRESSURE OUTPUT STEPS  5000
Info: HARMONIC CONSTRAINTS ACTIVE
Info: HARMONIC CONS EXP      2
Info: LANGEVIN DYNAMICS ACTIVE
Info: LANGEVIN TEMPERATURE   310
Info: LANGEVIN DAMPING COEFFICIENT IS 5 INVERSE PS
Info: LANGEVIN DYNAMICS NOT APPLIED TO HYDROGENS
Info: LANGEVIN PISTON PRESSURE CONTROL ACTIVE
Info:        TARGET PRESSURE IS 1.01325 BAR
Info:     OSCILLATION PERIOD IS 200 FS
Info:             DECAY TIME IS 50 FS
Info:     PISTON TEMPERATURE IS 310 K
Info:       PRESSURE CONTROL IS GROUP-BASED
Info:    INITIAL STRAIN RATE IS -9.20759e-06 -9.20759e-06 1.33073e-05
Info:       CELL FLUCTUATION IS ANISOTROPIC
Info:     SHAPE OF CELL IS CONSTRAINED IN X-Y PLANE
Info: PARTICLE MESH EWALD (PME) ACTIVE
Info: PME TOLERANCE               1e-06
Info: PME EWALD COEFFICIENT       0.257952
Info: PME INTERPOLATION ORDER     4
Info: PME GRID DIMENSIONS         128 128 120
Info: PME MAXIMUM GRID SPACING    1
Info: FULL ELECTROSTATIC EVALUATION FREQUENCY      4
Info: USING VERLET I (r-RESPA) MTS SCHEME.
Info: C1 SPLITTING OF LONG RANGE ELECTROSTATICS
Info: PLACING ATOMS IN PATCHES BY HYDROGEN GROUPS
Info: RIGID BONDS TO HYDROGEN : ALL
Info:         ERROR TOLERANCE : 1e-08
Info:          MAX ITERATIONS : 100
Info: RIGID WATER USING SETTLE ALGORITHM
Info: NONBONDED FORCES EVALUATED EVERY 2 STEPS
Info: RANDOM NUMBER SEED     1399927391
Info: USE HYDROGEN BONDS?    NO
Info: COORDINATE PDB         /home/jam2079/Pathrover/2x79/phase2a/dat_equil_phase2a6.coor
Info: STRUCTURE FILE         /home/jam2079/Pathrover/2x79/common/ionized.psf
Info: PARAMETER file: CHARMM format!
Info: PARAMETERS             /home/jam2079/Pathrover/2x79/common/parameters_all.prm
Info: USING ARITHMETIC MEAN TO COMBINE L-J SIGMA PARAMETERS
Info: BINARY COORDINATES     /home/jam2079/Pathrover/2x79/phase2a/dat_equil_phase2a6.restart.coor
Info: SUMMARY OF PARAMETERS:
Info: 231 BONDS
Info: 615 ANGLES
Info: 936 DIHEDRAL
Info: 55 IMPROPER
Info: 6 CROSSTERM
Info: 152 VDW
Info: 0 VDW_PAIRS
Info: STRUCTURE SUMMARY:
Info: 173052 ATOMS
Info: 137795 BONDS
Info: 164816 ANGLES
Info: 181135 DIHEDRALS
Info: 2060 IMPROPERS
Info: 0 CROSSTERMS
Info: 0 EXCLUSIONS
Info: 1845 CONSTRAINTS
Info: 145197 RIGID BONDS
Info: 373959 DEGREES OF FREEDOM
Info: 62622 HYDROGEN GROUPS
Info: 4 ATOMS IN LARGEST HYDROGEN GROUP
Info: 62622 MIGRATION GROUPS
Info: 4 ATOMS IN LARGEST MIGRATION GROUP
Info: TOTAL MASS = 1.03371e+06 amu
Info: TOTAL CHARGE = 4.80842e-05 e
Info: MASS DENSITY = 1.00239 g/cm^3
Info: ATOM DENSITY = 0.101055 atoms/A^3
Info: REMOVING COM VELOCITY 0.0214485 -0.00364975 0.0135788
Info: NONBONDED TABLE R-SQUARED SPACING: 0.0625
Info: NONBONDED TABLE SIZE: 769 POINTS
TCL: Minimizing for 2500 steps
ETITLE: TS BOND ANGLE DIHED IMPRP ELECT VDW BOUNDARY MISC KINETIC TOTAL TEMP POTENTIAL TOTAL3 TEMPAVG PRESSURE GPRESSURE VOLUME PRESSAVG GPRESSAVG
ENERGY: 0 8020.9814 40810.2570 27990.3416 506.7228 -440819.4543 12638.4519 308.8488 0.0000 0.0000 -350543.8509 0.0000 -350543.8509 -350543.8509 0.0000 11800.4098 -1572.0713 1712460.0906 11800.4098 -1572.0713
ENERGY: 500 16464.5139 19271.7673 23187.4136 67.5596 -588951.5341 27299.4055 228.0860 0.0000 0.0000 -502432.7881 0.0000 -502432.7881 -502432.7881 0.0000 -5101.5019 -5209.2422 1712460.0906 -5101.5019 -5209.2422
ENERGY: 1000 17251.5107 19329.5825 22870.0049 66.5437 -602096.7270 32539.4850 226.1195 0.0000 0.0000 -509813.4807 0.0000 -509813.4807 -509813.4807 0.0000 -4792.3777 -4788.8197 1712460.0906 -4792.3777 -4788.8197
ENERGY: 1500 17506.3614 19529.6212 22734.1998 66.2435 -608031.7785 35186.4100 225.9174 0.0000 0.0000 -512783.0251 0.0000 -512783.0251 -512783.0251 0.0000 -4454.1792 -4451.9777 1712460.0906 -4454.1792 -4451.9777
ENERGY: 2000 17624.5622 19580.0834 22688.6067 66.0040 -610877.6925 36561.9251 224.8091 0.0000 0.0000 -514131.7019 0.0000 -514131.7019 -514131.7019 0.0000 -4257.9023 -4259.4042 1712460.0906 -4257.9023 -4259.4042
ENERGY: 2500 17696.4419 19591.2185 22665.6054 65.6736 -612600.9878 37377.7703 225.5373 0.0000 0.0000 -514978.7408 0.0000 -514978.7408 -514978.7408 0.0000 -4133.2097 -4140.2977 1712460.0906 -4133.2097 -4140.2977
TCL: Running for 500000 steps
ETITLE: TS BOND ANGLE DIHED IMPRP ELECT VDW BOUNDARY MISC KINETIC TOTAL TEMP POTENTIAL TOTAL3 TEMPAVG PRESSURE GPRESSURE VOLUME PRESSAVG GPRESSAVG
ENERGY: 5000 8014.5232 39657.2856 27948.1088 527.9491 -449729.9235 14488.7887 327.8387 0.0000 112126.1810 -246639.2484 301.7682 -358765.4294 -246337.2447 266.4357 -13635.5190 -67.7568 1704895.9352 -6.5298 -1.0888
ENERGY: 105000 8022.8255 40726.2140 27958.3965 542.2885 -442276.7049 11742.7130 321.3323 0.0000 115293.9571 -237668.9780 310.2937 -352962.9350 -237386.9304 309.8409 -13341.5718 60.8704 1686900.2123 -0.0865 -0.0650
ENERGY: 205000 7974.1255 40615.1451 28020.3564 505.1004 -442432.0347 12122.8666 318.1902 0.0000 114745.1856 -238131.0649 308.8168 -352876.2505 -237832.0095 309.7438 -13368.6898 7.8717 1688156.8678 5.0249 5.0007
ENERGY: 300000 7960.1528 40652.8873 27959.7085 511.2030 -442249.7969 11876.8576 315.7000 0.0000 114997.8406 -237975.4470 309.4967 -352973.2876 -237678.8299 309.5126 -13269.6296 109.2854 1686807.2138 -5.7181 -5.7354
ENERGY: 400000 7976.6808 40588.5503 27869.6040 511.1782 -442009.6361 11927.9020 309.0376 0.0000 114992.6140 -237834.0693 309.4827 -352826.6832 -237552.2457 309.8576 -13193.4785 159.2380 1688482.8320 2.4540 2.4734
ENERGY: 500000 7996.3970 40491.3549 27873.2907 514.8733 -441906.8510 11568.2088 303.5330 0.0000 114933.8455 -238225.3479 309.3245 -353159.1933 -237932.6844 309.7571 -13365.2897 5.2072 1687437.7903 0.4360 0.4714
