Info: SIMULATION PARAMETERS:
Info: TIMESTEP               1
Info: NUMBER OF STEPS        0
Info: STEPS PER CYCLE        20
Info: PERIODIC CELL BASIS 1  120 0 0
Info: PERIODIC CELL BASIS 2  0 121.076 0
Info: PERIODIC CELL BASIS 3  0 0 117.531
Info: PERIODIC CELL CENTER   -0.44 0.232 1.462
Info: WRAPPING ALL CLUSTERS AROUND PERIODIC BOUNDARIES ON OUTPUT.
Info: FIRST LDB TIMESTEP     100
Info: LAST LDB TIMESTEP     -1
Info: HOM BACKGROUND SCALING 1
Info: PME BACKGROUND SCALING 1
Info: REMOVING PATCHES FROM PROCESSOR 0
Info: MIN ATOMS PER PATCH    40
Info: VELOCITY FILE          ../phase2a/dat_equil_phase2a6.restart.vel
Info: CENTER OF MASS MOVING INITIALLY? NO
Info: DIELECTRIC             1
Info: EXCLUDE                SCALED ONE-FOUR
Info: 1-4 ELECTROSTATICS SCALED BY 1
Info: MODIFIED 1-4 VDW PARAMETERS WILL BE USED
Info: DCD FILENAME           ./dat_phase2b1.dcd
Info: DCD FREQUENCY          5000
Info: DCD FIRST STEP         5000
Info: DCD FILE WILL CONTAIN UNIT CELL DATA
Info: XST FILENAME           ./dat_phase2b1.xst
Info: XST FREQUENCY          5000
Info: NO VELOCITY DCD OUTPUT
Info: NO FORCE DCD OUTPUT
Info: OUTPUT FILENAME        ./dat_phase2b1
Info: RESTART FILENAME       ./dat_phase2b1.restart
Info: RESTART FREQUENCY      5000
Info: BINARY RESTART FILES WILL BE USED
Info: SWITCHING ACTIVE
Info: SWITCHING ON           10
Info: SWITCHING OFF          12
Info: PAIRLIST DISTANCE      13.5
Info: PAIRLIST SHRINK RATE   0.01
Info: PAIRLIST GROW RATE     0.01
Info: PAIRLIST TRIGGER       0.3
Info: PAIRLISTS PER CYCLE    2
Info: PAIRLISTS ENABLED
Info: MARGIN                 1.5
Info: HYDROGEN GROUP CUTOFF  2.5
Info: PATCH DIMENSION        17.5
Info: ENERGY OUTPUT STEPS    5000
Info: CROSSTERM ENERGY INCLUDED IN DIHEDRAL
Info: TIMING OUTPUT STEPS    5000
Info: PRESSURE OUTPUT STEPS  5000
Info: HARMONIC CONSTRAINTS ACTIVE
Info: HARMONIC CONS EXP      2
Info: LANGEVIN DYNAMICS ACTIVE
Info: LANGEVIN TEMPERATURE   310
Info: LANGEVIN DAMPING COEFFICIENT IS 5 INVERSE PS
Info: LANGEVIN DYNAMICS NOT APPLIED TO HYDROGENS
Info: LANGEVIN PISTON PRESSURE CONTROL ACTIVE
Info:        TARGET PRESSURE IS 1.01325 BAR
Info:     OSCILLATION PERIOD IS 200 FS
Info:             DECAY TIME IS 50 FS
Info:     PISTON TEMPERATURE IS 310 K
Info:       PRESSURE CONTROL IS GROUP-BASED
Info:    INITIAL STRAIN RATE IS 7.75763e-06 7.75763e-06 1.78154e-06
Info:       CELL FLUCTUATION IS ANISOTROPIC
Info:     SHAPE OF CELL IS CONSTRAINED IN X-Y PLANE
Info: PARTICLE MESH EWALD (PME) ACTIVE
Info: PME TOLERANCE               1e-06
Info: PME EWALD COEFFICIENT       0.257952
Info: PME INTERPOLATION ORDER     4
Info: PME GRID DIMENSIONS         120 128 120
Info: PME MAXIMUM GRID SPACING    1
Info: FULL ELECTROSTATIC EVALUATION FREQUENCY      4
Info: USING VERLET I (r-RESPA) MTS SCHEME.
Info: C1 SPLITTING OF LONG RANGE ELECTROSTATICS
Info: PLACING ATOMS IN PATCHES BY HYDROGEN GROUPS
Info: RIGID BONDS TO HYDROGEN : ALL
Info:         ERROR TOLERANCE : 1e-08
Info:          MAX ITERATIONS : 100
Info: RIGID WATER USING SETTLE ALGORITHM
Info: NONBONDED FORCES EVALUATED EVERY 2 STEPS
Info: RANDOM NUMBER SEED     1406558879
Info: USE HYDROGEN BONDS?    NO
Info: COORDINATE PDB         ../phase2a/dat_equil_phase2a6.coor
Info: STRUCTURE FILE         ../common/ionized.psf
Info: PARAMETER file: CHARMM format!
Info: PARAMETERS             ../common/parameters_all.prm
Info: PARAMETERS             ../common/BHY_hyd_mod.prm
Info: USING ARITHMETIC MEAN TO COMBINE L-J SIGMA PARAMETERS
Info: BINARY COORDINATES     ../phase2a/dat_equil_phase2a6.restart.coor
Info: SUMMARY OF PARAMETERS:
Info: 242 BONDS
Info: 636 ANGLES
Info: 971 DIHEDRAL
Info: 55 IMPROPER
Info: 6 CROSSTERM
Info: 162 VDW
Info: 0 VDW_PAIRS
Info: 0 NBTHOLE_PAIRS
Info: STRUCTURE SUMMARY:
Info: 173276 ATOMS
Info: 137708 BONDS
Info: 163745 ANGLES
Info: 179218 DIHEDRALS
Info: 2048 IMPROPERS
Info: 0 CROSSTERMS
Info: 0 EXCLUSIONS
Info: 1846 CONSTRAINTS
Info: 145702 RIGID BONDS
Info: 374126 DEGREES OF FREEDOM
Info: 62658 HYDROGEN GROUPS
Info: 4 ATOMS IN LARGEST HYDROGEN GROUP
Info: 62658 MIGRATION GROUPS
Info: 4 ATOMS IN LARGEST MIGRATION GROUP
Info: TOTAL MASS = 1.03531e+06 amu
Info: TOTAL CHARGE = 4.75738e-05 e
Info: MASS DENSITY = 1.00678 g/cm^3
Info: ATOM DENSITY = 0.101472 atoms/A^3
Info: REMOVING COM VELOCITY 0.00163653 -0.00491249 -0.0123255
Info: NONBONDED TABLE R-SQUARED SPACING: 0.0625
Info: NONBONDED TABLE SIZE: 769 POINTS
TCL: Minimizing for 2500 steps
ETITLE: TS BOND ANGLE DIHED IMPRP ELECT VDW BOUNDARY MISC KINETIC TOTAL TEMP POTENTIAL TOTAL3 TEMPAVG PRESSURE GPRESSURE VOLUME PRESSAVG GPRESSAVG
ENERGY: 0 7990.6759 40052.6971 27713.8390 544.2144 -445021.9656 13742.3503 407.5985 0.0000 0.0000 -354570.5904 0.0000 -354570.5904 -354570.5904 0.0000 11913.1386 -1630.2501 1707622.0027 11913.1386 -1630.2501
ENERGY: 500 16365.0832 18994.8236 23041.7710 71.9707 -588330.1117 25269.7572 300.4822 0.0000 0.0000 -504286.2237 0.0000 -504286.2237 -504286.2237 0.0000 -5533.2059 -5596.2285 1707622.0027 -5533.2059 -5596.2285
ENERGY: 1000 17415.8827 19438.7261 22544.2568 66.4104 -608391.0579 34253.2630 285.4563 0.0000 0.0000 -514387.0625 0.0000 -514387.0625 -514387.0625 0.0000 -4678.7520 -4705.5221 1707622.0027 -4678.7520 -4705.5221
ENERGY: 1500 17749.2713 19493.5265 22443.9570 66.5443 -613721.1037 36578.2304 283.5381 0.0000 0.0000 -517106.0362 0.0000 -517106.0362 -517106.0362 0.0000 -4440.1553 -4412.0397 1707622.0027 -4440.1553 -4412.0397
ENERGY: 2000 17775.6689 19509.4108 22403.3736 65.9108 -615978.6974 37547.4013 282.8704 0.0000 0.0000 -518394.0615 0.0000 -518394.0615 -518394.0615 0.0000 -4267.7379 -4282.3950 1707622.0027 -4267.7379 -4282.3950
ENERGY: 2500 17870.5907 19529.3489 22380.8055 66.2117 -617636.2751 38330.7180 282.2116 0.0000 0.0000 -519176.3887 0.0000 -519176.3887 -519176.3887 0.0000 -4156.7157 -4158.3595 1707622.0027 -4156.7157 -4158.3595
TCL: Running for 500000 steps
ETITLE: TS BOND ANGLE DIHED IMPRP ELECT VDW BOUNDARY MISC KINETIC TOTAL TEMP POTENTIAL TOTAL3 TEMPAVG PRESSURE GPRESSURE VOLUME PRESSAVG GPRESSAVG
ENERGY: 5000 7983.5717 39349.9778 27501.5003 496.3343 -452570.0907 14631.6868 366.3576 0.0000 111872.8585 -250367.8037 300.9520 -362240.6622 -250083.8873 266.0681 -13889.8701 -187.9953 1700425.9352 -11.7373 -6.1782
ENERGY: 105000 7875.3510 40051.6185 27595.0255 516.6346 -445121.8008 12685.0053 369.2472 0.0000 115087.0367 -240941.8820 309.5985 -356028.9187 -240664.2561 309.5297 -13362.7348 122.4090 1690173.8985 0.5714 0.5621
ENERGY: 205000 8032.6212 40065.0420 27659.2364 502.0481 -444684.9346 11849.9023 377.1952 0.0000 114977.0032 -241221.8862 309.3025 -356198.8894 -240932.4752 309.5746 -13703.7832 -235.4731 1689608.1501 1.9824 2.0301
ENERGY: 300000 8016.1425 40097.3872 27550.2009 483.3037 -445663.1050 12401.1399 381.7813 0.0000 114887.6037 -241845.5459 309.0620 -356733.1496 -241560.2070 309.6895 -13411.9382 113.3483 1686702.5127 0.4793 0.5159
ENERGY: 400000 8060.0749 40231.0259 27554.5071 500.2927 -444926.5695 12570.2924 361.9380 0.0000 115195.4277 -240453.0107 309.8901 -355648.4385 -240155.3795 309.9541 -13369.4145 87.6974 1689139.2957 -0.7826 -0.8507
ENERGY: 500000 8026.8541 40203.7442 27420.8674 488.1646 -445340.1906 12163.7853 373.2680 0.0000 115000.4284 -241663.0786 309.3656 -356663.5070 -241371.8683 309.2119 -13531.5761 -28.1475 1686869.5146 -1.2028 -1.2306
