Info: SIMULATION PARAMETERS:
Info: TIMESTEP               1
Info: NUMBER OF STEPS        0
Info: STEPS PER CYCLE        20
Info: PERIODIC CELL BASIS 1  156.882 0 0
Info: PERIODIC CELL BASIS 2  0 158.287 0
Info: PERIODIC CELL BASIS 3  0 0 86.779
Info: PERIODIC CELL CENTER   -0.389 0.194 1.795
Info: WRAPPING ALL CLUSTERS AROUND PERIODIC BOUNDARIES ON OUTPUT.
Info: FIRST LDB TIMESTEP     100
Info: LAST LDB TIMESTEP     -1
Info: HOM BACKGROUND SCALING 1
Info: PME BACKGROUND SCALING 1
Info: MAX SELF PARTITIONS    20
Info: MAX PAIR PARTITIONS    8
Info: SELF PARTITION ATOMS   154
Info: SELF2 PARTITION ATOMS   154
Info: PAIR PARTITION ATOMS   318
Info: PAIR2 PARTITION ATOMS  637
Info: MIN ATOMS PER PATCH    100
Info: INITIAL TEMPERATURE    310
Info: CENTER OF MASS MOVING INITIALLY? NO
Info: DIELECTRIC             1
Info: EXCLUDE                SCALED ONE-FOUR
Info: 1-4 ELECTROSTATICS SCALED BY 1
Info: MODIFIED 1-4 VDW PARAMETERS WILL BE USED
Info: DCD FILENAME           ./dat_phase1.dcd
Info: DCD FREQUENCY          5000
Info: DCD FIRST STEP         5000
Info: DCD FILE WILL CONTAIN UNIT CELL DATA
Info: XST FILENAME           ./dat_phase1.xst
Info: XST FREQUENCY          5000
Info: NO VELOCITY DCD OUTPUT
Info: OUTPUT FILENAME        ./dat_phase1
Info: RESTART FILENAME       ./dat_phase1.restart
Info: RESTART FREQUENCY      5000
Info: BINARY RESTART FILES WILL BE USED
Info: SWITCHING ACTIVE
Info: SWITCHING ON           10
Info: SWITCHING OFF          12
Info: PAIRLIST DISTANCE      13.5
Info: PAIRLIST SHRINK RATE   0.01
Info: PAIRLIST GROW RATE     0.01
Info: PAIRLIST TRIGGER       0.3
Info: PAIRLISTS PER CYCLE    2
Info: PAIRLISTS ENABLED
Info: MARGIN                 1.5
Info: HYDROGEN GROUP CUTOFF  2.5
Info: PATCH DIMENSION        17.5
Info: ENERGY OUTPUT STEPS    5000
Info: CROSSTERM ENERGY INCLUDED IN DIHEDRAL
Info: TIMING OUTPUT STEPS    5000
Info: PRESSURE OUTPUT STEPS  5000
Info: FIXED ATOMS ACTIVE
Info: LANGEVIN DYNAMICS ACTIVE
Info: LANGEVIN TEMPERATURE   310
Info: LANGEVIN DAMPING COEFFICIENT IS 5 INVERSE PS
Info: LANGEVIN DYNAMICS NOT APPLIED TO HYDROGENS
Info: PARTICLE MESH EWALD (PME) ACTIVE
Info: PME TOLERANCE               1e-06
Info: PME EWALD COEFFICIENT       0.257952
Info: PME INTERPOLATION ORDER     4
Info: PME GRID DIMENSIONS         160 160 88
Info: PME MAXIMUM GRID SPACING    1
Info: FULL ELECTROSTATIC EVALUATION FREQUENCY      4
Info: USING VERLET I (r-RESPA) MTS SCHEME.
Info: C1 SPLITTING OF LONG RANGE ELECTROSTATICS
Info: PLACING ATOMS IN PATCHES BY HYDROGEN GROUPS
Info: RIGID BONDS TO HYDROGEN : ALL
Info:         ERROR TOLERANCE : 1e-08
Info:          MAX ITERATIONS : 100
Info: RIGID WATER USING SETTLE ALGORITHM
Info: NONBONDED FORCES EVALUATED EVERY 2 STEPS
Info: RANDOM NUMBER SEED     1398941889
Info: USE HYDROGEN BONDS?    NO
Info: COORDINATE PDB         /home/jam2079/Pathrover/2jln/common/ionized.pdb
Info: STRUCTURE FILE         /home/jam2079/Pathrover/2jln/common/ionized.psf
Info: PARAMETER file: CHARMM format!
Info: PARAMETERS             /home/jam2079/Pathrover/2jln/common/parameters_all.prm
Info: USING ARITHMETIC MEAN TO COMBINE L-J SIGMA PARAMETERS
Info: SUMMARY OF PARAMETERS:
Info: 231 BONDS
Info: 615 ANGLES
Info: 936 DIHEDRAL
Info: 55 IMPROPER
Info: 6 CROSSTERM
Info: 152 VDW
Info: 0 VDW_PAIRS
Info: STRUCTURE SUMMARY:
Info: 172765 ATOMS
Info: 137441 BONDS
Info: 163935 ANGLES
Info: 179819 DIHEDRALS
Info: 2052 IMPROPERS
Info: 0 CROSSTERMS
Info: 0 EXCLUSIONS
Info: 121735 FIXED ATOMS
Info: 145106 RIGID BONDS
Info: 113030 RIGID BONDS BETWEEN FIXED ATOMS
Info: 121014 DEGREES OF FREEDOM
Info: 62497 HYDROGEN GROUPS
Info: 4 ATOMS IN LARGEST HYDROGEN GROUP
Info: 62497 MIGRATION GROUPS
Info: 4 ATOMS IN LARGEST MIGRATION GROUP
Info: 43543 HYDROGEN GROUPS WITH ALL ATOMS FIXED
Info: TOTAL MASS = 1.03211e+06 amu
Info: TOTAL CHARGE = 4.77266e-05 e
Info: MASS DENSITY = 0.795342 g/cm^3
Info: ATOM DENSITY = 0.080172 atoms/A^3
Info: REMOVING COM VELOCITY -0.015042 0.00298975 -0.00451218
Info: NONBONDED TABLE R-SQUARED SPACING: 0.0625
Info: NONBONDED TABLE SIZE: 769 POINTS
TCL: Minimizing for 5000 steps
ETITLE: TS BOND ANGLE DIHED IMPRP ELECT VDW BOUNDARY MISC KINETIC TOTAL TEMP POTENTIAL TOTAL3 TEMPAVG PRESSURE GPRESSURE VOLUME PRESSAVG GPRESSAVG
ENERGY: 0 5093.9497 27854.4368 22164.9902 277.4376 -1880256.2908 9999999999.9999 0.0000 0.0000 0.0000 9999999999.9999 0.0000 9999999999.9999 9999999999.9999 0.0000 9999999999.9999 9999999999.9999 2154929.2635 9999999999.9999 9999999999.9999
ENERGY: 1000 3044.0279 20281.0298 25658.6117 181.5540 -1879560.5783 -326.5852 0.0000 0.0000 0.0000 -1830721.9402 0.0000 -1830721.9402 -1830721.9402 0.0000 2887.3562 2974.6265 2154929.2635 2887.3562 2974.6265
ENERGY: 2000 682.5867 6997.7601 22725.4785 118.0196 -1880576.6295 -15727.3306 0.0000 0.0000 0.0000 -1865780.1152 0.0000 -1865780.1152 -1865780.1152 0.0000 173.6621 181.8876 2154929.2635 173.6621 181.8876
ENERGY: 3000 578.9868 5852.7065 20783.1590 102.8326 -1880920.8489 -17566.5018 0.0000 0.0000 0.0000 -1871169.6658 0.0000 -1871169.6658 -1871169.6658 0.0000 -32.8896 -25.5017 2154929.2635 -32.8896 -25.5017
ENERGY: 4000 565.4340 5668.1390 20306.7448 98.6133 -1880994.6136 -18046.7162 0.0000 0.0000 0.0000 -1872402.3986 0.0000 -1872402.3986 -1872402.3986 0.0000 -32.7839 -37.9933 2154929.2635 -32.7839 -37.9933
ENERGY: 5000 562.5584 5581.6235 20111.5509 94.9203 -1881062.0986 -18381.0932 0.0000 0.0000 0.0000 -1873092.5387 0.0000 -1873092.5387 -1873092.5387 0.0000 -46.5550 -44.6554 2154929.2635 -46.5550 -44.6554
TCL: Running for 500000 steps
ETITLE: TS BOND ANGLE DIHED IMPRP ELECT VDW BOUNDARY MISC KINETIC TOTAL TEMP POTENTIAL TOTAL3 TEMPAVG PRESSURE GPRESSURE VOLUME PRESSAVG GPRESSAVG
ENERGY: 5000 513.7241 5621.2253 20112.1018 95.0009 -1881017.6171 -18357.6781 0.0000 0.0000 37138.9988 -1835894.2443 308.8766 -1873033.2430 -1835908.3128 308.8766 259.4592 353.4656 2154929.2635 259.4592 353.4656
ENERGY: 105000 5168.8943 29203.3875 23121.8531 322.9440 -1881949.8613 -15838.4838 0.0000 0.0000 37002.2097 -1802969.0565 307.7389 -1839971.2662 -1802775.7073 309.8825 47.0739 139.6211 2154929.2635 -13.4870 -13.9217
ENERGY: 205000 5103.0196 29375.3139 23324.1874 306.0921 -1882135.6951 -16262.7417 0.0000 0.0000 37410.7683 -1802879.0554 311.1368 -1840289.8237 -1802670.2902 310.3592 318.0668 408.6479 2154929.2635 -15.1453 -15.5842
ENERGY: 305000 5223.9372 29295.8336 23144.2575 292.3955 -1882207.4676 -16222.6974 0.0000 0.0000 37591.8405 -1802881.9007 312.6427 -1840473.7412 -1802686.0885 310.5320 -385.7691 -302.0324 2154929.2635 -7.2391 -7.7079
ENERGY: 405000 5246.3426 29078.5506 23124.3519 309.0733 -1882256.9145 -16319.5921 0.0000 0.0000 37034.1421 -1803784.0460 308.0045 -1840818.1882 -1803590.5218 309.3096 475.3998 566.4279 2154929.2635 -15.7144 -16.1689
ENERGY: 505000 5186.2285 28960.8122 23051.4675 310.7400 -1882370.1064 -16308.0959 0.0000 0.0000 37326.4722 -1803842.4820 310.4357 -1841168.9542 -1803646.2129 309.8473 507.0432 597.7583 2154929.2635 3.1331 2.6748
