Info: SIMULATION PARAMETERS:
Info: TIMESTEP               1
Info: NUMBER OF STEPS        0
Info: STEPS PER CYCLE        20
Info: PERIODIC CELL BASIS 1  125.621 0 0
Info: PERIODIC CELL BASIS 2  0 130.908 0
Info: PERIODIC CELL BASIS 3  0 0 134.653
Info: PERIODIC CELL CENTER   39.571 42.926 -0.222
Info: WRAPPING ALL CLUSTERS AROUND PERIODIC BOUNDARIES ON OUTPUT.
Info: FIRST LDB TIMESTEP     100
Info: LAST LDB TIMESTEP     -1
Info: HOM BACKGROUND SCALING 1
Info: PME BACKGROUND SCALING 1
Info: MAX SELF PARTITIONS    20
Info: MAX PAIR PARTITIONS    8
Info: SELF PARTITION ATOMS   154
Info: SELF2 PARTITION ATOMS   154
Info: PAIR PARTITION ATOMS   318
Info: PAIR2 PARTITION ATOMS  637
Info: MIN ATOMS PER PATCH    100
Info: VELOCITY FILE          /home/jam2079/Pathrover/3tt1/phase2a/dat_equil_phase2a6.restart.vel
Info: CENTER OF MASS MOVING INITIALLY? NO
Info: DIELECTRIC             1
Info: EXCLUDE                SCALED ONE-FOUR
Info: 1-4 ELECTROSTATICS SCALED BY 1
Info: MODIFIED 1-4 VDW PARAMETERS WILL BE USED
Info: DCD FILENAME           ./dat_phase2b1.dcd
Info: DCD FREQUENCY          5000
Info: DCD FIRST STEP         5000
Info: DCD FILE WILL CONTAIN UNIT CELL DATA
Info: XST FILENAME           ./dat_phase2b1.xst
Info: XST FREQUENCY          5000
Info: NO VELOCITY DCD OUTPUT
Info: OUTPUT FILENAME        ./dat_phase2b1
Info: RESTART FILENAME       ./dat_phase2b1.restart
Info: RESTART FREQUENCY      5000
Info: BINARY RESTART FILES WILL BE USED
Info: SWITCHING ACTIVE
Info: SWITCHING ON           10
Info: SWITCHING OFF          12
Info: PAIRLIST DISTANCE      13.5
Info: PAIRLIST SHRINK RATE   0.01
Info: PAIRLIST GROW RATE     0.01
Info: PAIRLIST TRIGGER       0.3
Info: PAIRLISTS PER CYCLE    2
Info: PAIRLISTS ENABLED
Info: MARGIN                 1.5
Info: HYDROGEN GROUP CUTOFF  2.5
Info: PATCH DIMENSION        17.5
Info: ENERGY OUTPUT STEPS    5000
Info: CROSSTERM ENERGY INCLUDED IN DIHEDRAL
Info: TIMING OUTPUT STEPS    5000
Info: PRESSURE OUTPUT STEPS  5000
Info: HARMONIC CONSTRAINTS ACTIVE
Info: HARMONIC CONS EXP      2
Info: LANGEVIN DYNAMICS ACTIVE
Info: LANGEVIN TEMPERATURE   310
Info: LANGEVIN DAMPING COEFFICIENT IS 5 INVERSE PS
Info: LANGEVIN DYNAMICS NOT APPLIED TO HYDROGENS
Info: LANGEVIN PISTON PRESSURE CONTROL ACTIVE
Info:        TARGET PRESSURE IS 1.01325 BAR
Info:     OSCILLATION PERIOD IS 200 FS
Info:             DECAY TIME IS 50 FS
Info:     PISTON TEMPERATURE IS 310 K
Info:       PRESSURE CONTROL IS GROUP-BASED
Info:    INITIAL STRAIN RATE IS 1.75381e-05 1.75381e-05 2.84143e-05
Info:       CELL FLUCTUATION IS ANISOTROPIC
Info:     SHAPE OF CELL IS CONSTRAINED IN X-Y PLANE
Info: PARTICLE MESH EWALD (PME) ACTIVE
Info: PME TOLERANCE               1e-06
Info: PME EWALD COEFFICIENT       0.257952
Info: PME INTERPOLATION ORDER     4
Info: PME GRID DIMENSIONS         128 132 144
Info: PME MAXIMUM GRID SPACING    1
Info: FULL ELECTROSTATIC EVALUATION FREQUENCY      4
Info: USING VERLET I (r-RESPA) MTS SCHEME.
Info: C1 SPLITTING OF LONG RANGE ELECTROSTATICS
Info: PLACING ATOMS IN PATCHES BY HYDROGEN GROUPS
Info: RIGID BONDS TO HYDROGEN : ALL
Info:         ERROR TOLERANCE : 1e-08
Info:          MAX ITERATIONS : 100
Info: RIGID WATER USING SETTLE ALGORITHM
Info: NONBONDED FORCES EVALUATED EVERY 2 STEPS
Info: RANDOM NUMBER SEED     1399939354
Info: USE HYDROGEN BONDS?    NO
Info: COORDINATE PDB         /home/jam2079/Pathrover/3tt1/phase2a/dat_equil_phase2a6.coor
Info: STRUCTURE FILE         /home/jam2079/Pathrover/3tt1/common/ionized.psf
Info: PARAMETER file: CHARMM format!
Info: PARAMETERS             /home/jam2079/Pathrover/3tt1/common/parameters_all.prm
Info: USING ARITHMETIC MEAN TO COMBINE L-J SIGMA PARAMETERS
Info: BINARY COORDINATES     /home/jam2079/Pathrover/3tt1/phase2a/dat_equil_phase2a6.restart.coor
Info: SUMMARY OF PARAMETERS:
Info: 231 BONDS
Info: 615 ANGLES
Info: 936 DIHEDRAL
Info: 55 IMPROPER
Info: 6 CROSSTERM
Info: 152 VDW
Info: 0 VDW_PAIRS
Info: STRUCTURE SUMMARY:
Info: 223945 ATOMS
Info: 174173 BONDS
Info: 193453 ANGLES
Info: 201079 DIHEDRALS
Info: 2283 IMPROPERS
Info: 0 CROSSTERMS
Info: 0 EXCLUSIONS
Info: 2063 CONSTRAINTS
Info: 192958 RIGID BONDS
Info: 478877 DEGREES OF FREEDOM
Info: 80205 HYDROGEN GROUPS
Info: 4 ATOMS IN LARGEST HYDROGEN GROUP
Info: 80205 MIGRATION GROUPS
Info: 4 ATOMS IN LARGEST MIGRATION GROUP
Info: TOTAL MASS = 1.33978e+06 amu
Info: TOTAL CHARGE = 5.37336e-05 e
Info: MASS DENSITY = 1.00473 g/cm^3
Info: ATOM DENSITY = 0.101134 atoms/A^3
Info: REMOVING COM VELOCITY 0.00814856 0.0187249 -0.0103236
Info: NONBONDED TABLE R-SQUARED SPACING: 0.0625
Info: NONBONDED TABLE SIZE: 769 POINTS
TCL: Minimizing for 2500 steps
ETITLE: TS BOND ANGLE DIHED IMPRP ELECT VDW BOUNDARY MISC KINETIC TOTAL TEMP POTENTIAL TOTAL3 TEMPAVG PRESSURE GPRESSURE VOLUME PRESSAVG GPRESSAVG
ENERGY: 0 9133.3187 44894.3380 30883.0841 582.8716 -605559.0247 24422.6049 257.9578 0.0000 0.0000 -495384.8496 0.0000 -495384.8496 -495384.8496 0.0000 12517.8109 -1936.5085 2214340.8287 12517.8109 -1936.5085
ENERGY: 500 23174.8095 24917.4445 25558.2758 82.4066 -816996.3139 48584.5705 161.9949 0.0000 0.0000 -694516.8121 0.0000 -694516.8121 -694516.8121 0.0000 -5279.6353 -5332.3102 2214340.8287 -5279.6353 -5332.3102
ENERGY: 1000 24164.3887 24821.4752 25149.3428 78.5425 -836468.7533 56753.7467 158.4635 0.0000 0.0000 -705342.7939 0.0000 -705342.7939 -705342.7939 0.0000 -4766.8132 -4766.5673 2214340.8287 -4766.8132 -4766.5673
ENERGY: 1500 24444.8689 24888.5596 25038.6719 77.2913 -842960.7670 59133.2326 155.3343 0.0000 0.0000 -709222.8085 0.0000 -709222.8085 -709222.8085 0.0000 -4609.9221 -4616.7415 2214340.8287 -4609.9221 -4616.7415
ENERGY: 2000 24729.8651 24964.4477 24973.6942 76.6705 -847234.9802 61033.1913 153.8805 0.0000 0.0000 -711303.2310 0.0000 -711303.2310 -711303.2310 0.0000 -4432.7596 -4409.0439 2214340.8287 -4432.7596 -4409.0439
ENERGY: 2500 24728.6659 25002.8928 24938.1426 76.2539 -849536.5545 62036.4117 153.9857 0.0000 0.0000 -712600.2020 0.0000 -712600.2020 -712600.2020 0.0000 -4287.0895 -4306.5208 2214340.8287 -4287.0895 -4306.5208
TCL: Running for 500000 steps
ETITLE: TS BOND ANGLE DIHED IMPRP ELECT VDW BOUNDARY MISC KINETIC TOTAL TEMP POTENTIAL TOTAL3 TEMPAVG PRESSURE GPRESSURE VOLUME PRESSAVG GPRESSAVG
ENERGY: 5000 8847.8467 43749.6214 30889.5010 593.9908 -617179.1474 27600.2543 267.0274 0.0000 142440.5878 -362790.3181 299.3644 -505230.9059 -362480.0788 265.3312 -14511.5397 180.0653 2203366.5075 -3.1053 2.8470
ENERGY: 105000 9036.7041 44947.4559 30655.8474 600.2314 -606757.0116 24166.1943 235.2403 0.0000 147257.9179 -349857.4204 309.4889 -497115.3383 -349504.2855 309.9709 -14521.1065 -64.8753 2192144.6142 -1.9022 -1.9049
ENERGY: 205000 8848.7620 45079.6009 30730.8174 577.1479 -607384.1785 24134.9552 261.0149 0.0000 147174.2845 -350577.5956 309.3131 -497751.8801 -350203.1294 309.6375 -14475.1405 6.0542 2187291.3448 -3.3524 -3.3417
ENERGY: 300000 8941.1955 45016.1087 30577.4085 557.0154 -607638.2026 24314.5636 220.3610 0.0000 147011.0259 -351000.5241 308.9700 -498011.5500 -350651.0239 309.9602 -14450.7208 22.3147 2190805.0610 2.0655 2.1011
ENERGY: 400000 9010.8085 44862.6291 30810.2587 570.6525 -607669.4121 24237.7982 248.5127 0.0000 147518.6472 -350410.1051 310.0369 -497928.7524 -350019.9882 309.7596 -14498.7272 4.6322 2186859.2579 3.7281 3.7235
ENERGY: 500000 8967.2570 44842.3217 30818.4840 590.9358 -608350.8716 24270.5678 244.1175 0.0000 147179.1617 -351438.0262 309.3234 -498617.1879 -351064.9704 309.6246 -14643.4591 -127.6674 2188398.6982 0.3781 0.3194
