Info: SIMULATION PARAMETERS:
Info: TIMESTEP               1
Info: NUMBER OF STEPS        0
Info: STEPS PER CYCLE        20
Info: PERIODIC CELL BASIS 1  128.374 0 0
Info: PERIODIC CELL BASIS 2  0 129.524 0
Info: PERIODIC CELL BASIS 3  0 0 101.924
Info: PERIODIC CELL CENTER   -0.424 0.217 0.822
Info: WRAPPING ALL CLUSTERS AROUND PERIODIC BOUNDARIES ON OUTPUT.
Info: FIRST LDB TIMESTEP     100
Info: LAST LDB TIMESTEP     -1
Info: HOM BACKGROUND SCALING 1
Info: PME BACKGROUND SCALING 1
Info: MAX SELF PARTITIONS    20
Info: MAX PAIR PARTITIONS    8
Info: SELF PARTITION ATOMS   154
Info: SELF2 PARTITION ATOMS   154
Info: PAIR PARTITION ATOMS   318
Info: PAIR2 PARTITION ATOMS  637
Info: MIN ATOMS PER PATCH    100
Info: VELOCITY FILE          /home/jam2079/Pathrover/2x79/phase1c/dat_phase1c.vel
Info: CENTER OF MASS MOVING INITIALLY? NO
Info: DIELECTRIC             1
Info: EXCLUDE                SCALED ONE-FOUR
Info: 1-4 ELECTROSTATICS SCALED BY 1
Info: MODIFIED 1-4 VDW PARAMETERS WILL BE USED
Info: DCD FILENAME           ./dat_equil_phase2a1.np.dcd
Info: DCD FREQUENCY          5000
Info: DCD FIRST STEP         5000
Info: DCD FILE WILL CONTAIN UNIT CELL DATA
Info: XST FILENAME           ./dat_equil_phase2a1.np.xst
Info: XST FREQUENCY          5000
Info: NO VELOCITY DCD OUTPUT
Info: OUTPUT FILENAME        ./dat_equil_phase2a1.np
Info: RESTART FILENAME       ./dat_equil_phase2a1.np.restart
Info: RESTART FREQUENCY      5000
Info: BINARY RESTART FILES WILL BE USED
Info: SWITCHING ACTIVE
Info: SWITCHING ON           10
Info: SWITCHING OFF          12
Info: PAIRLIST DISTANCE      13.5
Info: PAIRLIST SHRINK RATE   0.01
Info: PAIRLIST GROW RATE     0.01
Info: PAIRLIST TRIGGER       0.3
Info: PAIRLISTS PER CYCLE    2
Info: PAIRLISTS ENABLED
Info: MARGIN                 1.5
Info: HYDROGEN GROUP CUTOFF  2.5
Info: PATCH DIMENSION        17.5
Info: ENERGY OUTPUT STEPS    5000
Info: CROSSTERM ENERGY INCLUDED IN DIHEDRAL
Info: TIMING OUTPUT STEPS    5000
Info: PRESSURE OUTPUT STEPS  5000
Info: HARMONIC CONSTRAINTS ACTIVE
Info: HARMONIC CONS EXP      2
Info: LANGEVIN DYNAMICS ACTIVE
Info: LANGEVIN TEMPERATURE   310
Info: LANGEVIN DAMPING COEFFICIENT IS 5 INVERSE PS
Info: LANGEVIN DYNAMICS NOT APPLIED TO HYDROGENS
Info: LANGEVIN PISTON PRESSURE CONTROL ACTIVE
Info:        TARGET PRESSURE IS 1.01325 BAR
Info:     OSCILLATION PERIOD IS 200 FS
Info:             DECAY TIME IS 50 FS
Info:     PISTON TEMPERATURE IS 310 K
Info:       PRESSURE CONTROL IS GROUP-BASED
Info:    INITIAL STRAIN RATE IS -5.1158e-08 -5.1158e-08 3.0231e-05
Info:       CELL FLUCTUATION IS ANISOTROPIC
Info:     SHAPE OF CELL IS CONSTRAINED IN X-Y PLANE
Info: PARTICLE MESH EWALD (PME) ACTIVE
Info: PME TOLERANCE               1e-06
Info: PME EWALD COEFFICIENT       0.257952
Info: PME INTERPOLATION ORDER     4
Info: PME GRID DIMENSIONS         132 132 108
Info: PME MAXIMUM GRID SPACING    1
Info: FULL ELECTROSTATIC EVALUATION FREQUENCY      4
Info: USING VERLET I (r-RESPA) MTS SCHEME.
Info: C1 SPLITTING OF LONG RANGE ELECTROSTATICS
Info: PLACING ATOMS IN PATCHES BY HYDROGEN GROUPS
Info: RIGID BONDS TO HYDROGEN : ALL
Info:         ERROR TOLERANCE : 1e-08
Info:          MAX ITERATIONS : 100
Info: RIGID WATER USING SETTLE ALGORITHM
Info: NONBONDED FORCES EVALUATED EVERY 2 STEPS
Info: RANDOM NUMBER SEED     1399315477
Info: USE HYDROGEN BONDS?    NO
Info: COORDINATE PDB         /home/jam2079/Pathrover/2x79/phase1c/dat_phase1c.coor
Info: STRUCTURE FILE         /home/jam2079/Pathrover/2x79/common/ionized.psf
Info: PARAMETER file: CHARMM format!
Info: PARAMETERS             /home/jam2079/Pathrover/2x79/common/parameters_all.prm
Info: USING ARITHMETIC MEAN TO COMBINE L-J SIGMA PARAMETERS
Info: SUMMARY OF PARAMETERS:
Info: 231 BONDS
Info: 615 ANGLES
Info: 936 DIHEDRAL
Info: 55 IMPROPER
Info: 6 CROSSTERM
Info: 152 VDW
Info: 0 VDW_PAIRS
Info: STRUCTURE SUMMARY:
Info: 173052 ATOMS
Info: 137795 BONDS
Info: 164816 ANGLES
Info: 181135 DIHEDRALS
Info: 2060 IMPROPERS
Info: 0 CROSSTERMS
Info: 0 EXCLUSIONS
Info: 1845 CONSTRAINTS
Info: 145197 RIGID BONDS
Info: 373959 DEGREES OF FREEDOM
Info: 62622 HYDROGEN GROUPS
Info: 4 ATOMS IN LARGEST HYDROGEN GROUP
Info: 62622 MIGRATION GROUPS
Info: 4 ATOMS IN LARGEST MIGRATION GROUP
Info: TOTAL MASS = 1.03371e+06 amu
Info: TOTAL CHARGE = 4.80842e-05 e
Info: MASS DENSITY = 1.01287 g/cm^3
Info: ATOM DENSITY = 0.102111 atoms/A^3
Info: REMOVING COM VELOCITY 0.0186989 -0.0193309 0.0148748
Info: NONBONDED TABLE R-SQUARED SPACING: 0.0625
Info: NONBONDED TABLE SIZE: 769 POINTS
TCL: Minimizing for 2500 steps
ETITLE: TS BOND ANGLE DIHED IMPRP ELECT VDW BOUNDARY MISC KINETIC TOTAL TEMP POTENTIAL TOTAL3 TEMPAVG PRESSURE GPRESSURE VOLUME PRESSAVG GPRESSAVG
ENERGY: 0 7316.6353 40093.8835 28072.4324 477.8411 -441239.6623 14152.7028 0.0000 0.0000 0.0000 -351126.1673 0.0000 -351126.1673 -351126.1673 0.0000 12604.6725 -895.5772 1694742.7345 12604.6725 -895.5772
ENERGY: 500 16667.7188 19612.4926 23364.1119 65.7209 -591004.9760 29237.7182 131.8133 0.0000 0.0000 -501925.4003 0.0000 -501925.4003 -501925.4003 0.0000 -4662.2725 -4950.3024 1694742.7345 -4662.2725 -4950.3024
ENERGY: 1000 17405.8899 19504.7534 23046.1681 65.7120 -603852.1357 33617.3807 143.7127 0.0000 0.0000 -510068.5189 0.0000 -510068.5189 -510068.5189 0.0000 -4720.0838 -4688.9153 1694742.7345 -4720.0838 -4688.9153
ENERGY: 1500 17746.9720 19687.2244 22911.8685 64.7507 -609454.0813 35990.6835 150.0078 0.0000 0.0000 -512902.5743 0.0000 -512902.5743 -512902.5743 0.0000 -4539.1354 -4466.4054 1694742.7345 -4539.1354 -4466.4054
ENERGY: 2000 17775.7029 19697.5366 22862.0821 64.8564 -611744.3100 37016.1524 150.6185 0.0000 0.0000 -514177.3611 0.0000 -514177.3611 -514177.3611 0.0000 -4394.6999 -4363.7429 1694742.7345 -4394.6999 -4363.7429
ENERGY: 2500 17833.4885 19743.6119 22838.2544 64.9260 -613269.3762 37721.7465 151.9142 0.0000 0.0000 -514915.4347 0.0000 -514915.4347 -514915.4347 0.0000 -4298.8368 -4274.8630 1694742.7345 -4298.8368 -4274.8630
TCL: Running for 250000 steps
ETITLE: TS BOND ANGLE DIHED IMPRP ELECT VDW BOUNDARY MISC KINETIC TOTAL TEMP POTENTIAL TOTAL3 TEMPAVG PRESSURE GPRESSURE VOLUME PRESSAVG GPRESSAVG
ENERGY: 5000 8023.4590 39834.2611 27951.7274 519.7070 -448454.5236 13984.9381 284.6149 0.0000 111852.8633 -246002.9529 301.0326 -357855.8162 -245743.9526 266.8719 -13721.8316 -108.9970 1692682.4831 -6.1479 -0.6580
ENERGY: 55000 8055.4001 40745.8024 28045.5259 484.8138 -441267.1788 12232.3189 307.7412 0.0000 114504.6622 -236890.9143 308.1694 -351395.5765 -236613.6095 309.8153 -13304.1879 33.1086 1688972.0290 -1.4021 -1.4237
ENERGY: 105000 8079.7038 41064.0922 27866.1532 479.1949 -441692.3117 11945.3520 305.2677 0.0000 114529.9177 -237422.6302 308.2374 -351952.5479 -237140.4616 309.7144 -13393.9981 -52.5944 1691469.2153 -2.8139 -2.7914
ENERGY: 150000 8100.3282 40699.2100 28048.9616 513.7645 -441289.4844 11895.4705 301.7169 0.0000 114723.8894 -237006.1433 308.7594 -351730.0327 -236718.4277 309.6644 -13258.0959 108.4306 1686476.1199 -2.6074 -2.5677
ENERGY: 200000 8072.7014 40800.7912 27995.4381 519.1587 -440758.3841 11628.1374 285.7286 0.0000 114759.7992 -236696.6295 308.8561 -351456.4287 -236415.9920 309.6767 -13411.0232 -101.5655 1691219.9261 2.6090 2.6222
ENERGY: 250000 7956.0565 40790.6499 27897.8476 495.5545 -442062.6917 12214.5244 303.7571 0.0000 114688.2858 -237716.0160 308.6636 -352404.3018 -237428.4227 309.5520 -13399.4098 -25.9453 1687292.2257 -0.8698 -0.8150
