Info: SIMULATION PARAMETERS:
Info: TIMESTEP               1
Info: NUMBER OF STEPS        0
Info: STEPS PER CYCLE        20
Info: PERIODIC CELL BASIS 1  120.284 0 0
Info: PERIODIC CELL BASIS 2  0 121.363 0
Info: PERIODIC CELL BASIS 3  0 0 115.018
Info: PERIODIC CELL CENTER   -0.436 0.199 0.879
Info: WRAPPING ALL CLUSTERS AROUND PERIODIC BOUNDARIES ON OUTPUT.
Info: FIRST LDB TIMESTEP     100
Info: LAST LDB TIMESTEP     -1
Info: HOM BACKGROUND SCALING 1
Info: PME BACKGROUND SCALING 1
Info: REMOVING PATCHES FROM PROCESSOR 0
Info: MIN ATOMS PER PATCH    40
Info: VELOCITY FILE          ../phase2a/dat_equil_phase2a6.restart.vel
Info: CENTER OF MASS MOVING INITIALLY? NO
Info: DIELECTRIC             1
Info: EXCLUDE                SCALED ONE-FOUR
Info: 1-4 ELECTROSTATICS SCALED BY 1
Info: MODIFIED 1-4 VDW PARAMETERS WILL BE USED
Info: DCD FILENAME           ./dat_phase2b1.dcd
Info: DCD FREQUENCY          5000
Info: DCD FIRST STEP         5000
Info: DCD FILE WILL CONTAIN UNIT CELL DATA
Info: XST FILENAME           ./dat_phase2b1.xst
Info: XST FREQUENCY          5000
Info: NO VELOCITY DCD OUTPUT
Info: NO FORCE DCD OUTPUT
Info: OUTPUT FILENAME        ./dat_phase2b1
Info: RESTART FILENAME       ./dat_phase2b1.restart
Info: RESTART FREQUENCY      5000
Info: BINARY RESTART FILES WILL BE USED
Info: SWITCHING ACTIVE
Info: SWITCHING ON           10
Info: SWITCHING OFF          12
Info: PAIRLIST DISTANCE      13.5
Info: PAIRLIST SHRINK RATE   0.01
Info: PAIRLIST GROW RATE     0.01
Info: PAIRLIST TRIGGER       0.3
Info: PAIRLISTS PER CYCLE    2
Info: PAIRLISTS ENABLED
Info: MARGIN                 1.5
Info: HYDROGEN GROUP CUTOFF  2.5
Info: PATCH DIMENSION        17.5
Info: ENERGY OUTPUT STEPS    5000
Info: CROSSTERM ENERGY INCLUDED IN DIHEDRAL
Info: TIMING OUTPUT STEPS    5000
Info: PRESSURE OUTPUT STEPS  5000
Info: HARMONIC CONSTRAINTS ACTIVE
Info: HARMONIC CONS EXP      2
Info: LANGEVIN DYNAMICS ACTIVE
Info: LANGEVIN TEMPERATURE   310
Info: LANGEVIN DAMPING COEFFICIENT IS 5 INVERSE PS
Info: LANGEVIN DYNAMICS NOT APPLIED TO HYDROGENS
Info: LANGEVIN PISTON PRESSURE CONTROL ACTIVE
Info:        TARGET PRESSURE IS 1.01325 BAR
Info:     OSCILLATION PERIOD IS 200 FS
Info:             DECAY TIME IS 50 FS
Info:     PISTON TEMPERATURE IS 310 K
Info:       PRESSURE CONTROL IS GROUP-BASED
Info:    INITIAL STRAIN RATE IS -7.88313e-07 -7.88313e-07 -5.41368e-05
Info:       CELL FLUCTUATION IS ANISOTROPIC
Info:     SHAPE OF CELL IS CONSTRAINED IN X-Y PLANE
Info: PARTICLE MESH EWALD (PME) ACTIVE
Info: PME TOLERANCE               1e-06
Info: PME EWALD COEFFICIENT       0.257952
Info: PME INTERPOLATION ORDER     4
Info: PME GRID DIMENSIONS         128 128 120
Info: PME MAXIMUM GRID SPACING    1
Info: FULL ELECTROSTATIC EVALUATION FREQUENCY      4
Info: USING VERLET I (r-RESPA) MTS SCHEME.
Info: C1 SPLITTING OF LONG RANGE ELECTROSTATICS
Info: PLACING ATOMS IN PATCHES BY HYDROGEN GROUPS
Info: RIGID BONDS TO HYDROGEN : ALL
Info:         ERROR TOLERANCE : 1e-08
Info:          MAX ITERATIONS : 100
Info: RIGID WATER USING SETTLE ALGORITHM
Info: NONBONDED FORCES EVALUATED EVERY 2 STEPS
Info: RANDOM NUMBER SEED     1406615737
Info: USE HYDROGEN BONDS?    NO
Info: COORDINATE PDB         ../phase2a/dat_equil_phase2a6.coor
Info: STRUCTURE FILE         ../common/ionized.psf
Info: PARAMETER file: CHARMM format!
Info: PARAMETERS             ../common/parameters_all.prm
Info: USING ARITHMETIC MEAN TO COMBINE L-J SIGMA PARAMETERS
Info: BINARY COORDINATES     ../phase2a/dat_equil_phase2a6.restart.coor
Info: SUMMARY OF PARAMETERS:
Info: 231 BONDS
Info: 615 ANGLES
Info: 936 DIHEDRAL
Info: 55 IMPROPER
Info: 6 CROSSTERM
Info: 152 VDW
Info: 0 VDW_PAIRS
Info: 0 NBTHOLE_PAIRS
Info: STRUCTURE SUMMARY:
Info: 170482 ATOMS
Info: 136083 BONDS
Info: 163960 ANGLES
Info: 181135 DIHEDRALS
Info: 2060 IMPROPERS
Info: 0 CROSSTERMS
Info: 0 EXCLUSIONS
Info: 1845 CONSTRAINTS
Info: 142629 RIGID BONDS
Info: 368817 DEGREES OF FREEDOM
Info: 61764 HYDROGEN GROUPS
Info: 4 ATOMS IN LARGEST HYDROGEN GROUP
Info: 61764 MIGRATION GROUPS
Info: 4 ATOMS IN LARGEST MIGRATION GROUP
Info: TOTAL MASS = 1.01823e+06 amu
Info: TOTAL CHARGE = 4.80842e-05 e
Info: MASS DENSITY = 1.00703 g/cm^3
Info: ATOM DENSITY = 0.101536 atoms/A^3
Info: REMOVING COM VELOCITY -0.0242113 -0.00876772 0.0157463
Info: NONBONDED TABLE R-SQUARED SPACING: 0.0625
Info: NONBONDED TABLE SIZE: 769 POINTS
TCL: Minimizing for 2500 steps
ETITLE: TS BOND ANGLE DIHED IMPRP ELECT VDW BOUNDARY MISC KINETIC TOTAL TEMP POTENTIAL TOTAL3 TEMPAVG PRESSURE GPRESSURE VOLUME PRESSAVG GPRESSAVG
ENERGY: 0 8050.5735 40829.3300 27822.8248 518.8953 -432483.6999 11504.0129 419.1739 0.0000 0.0000 -343338.8895 0.0000 -343338.8895 -343338.8895 0.0000 11705.9293 -1658.8698 1679035.8801 11705.9293 -1658.8698
ENERGY: 500 16623.9396 18682.8410 23266.7655 72.2139 -572994.4189 23606.7444 330.2875 0.0000 0.0000 -490411.6270 0.0000 -490411.6270 -490411.6270 0.0000 -5868.4992 -5548.7364 1679035.8801 -5868.4992 -5548.7364
ENERGY: 1000 17018.1146 19176.5503 22832.9790 67.8677 -590486.6724 31503.4529 317.8107 0.0000 0.0000 -499569.8973 0.0000 -499569.8973 -499569.8973 0.0000 -4802.0017 -4738.5175 1679035.8801 -4802.0017 -4738.5175
ENERGY: 1500 17192.6244 19333.1141 22721.8558 66.6897 -596238.1217 34344.6190 316.6316 0.0000 0.0000 -502262.5870 0.0000 -502262.5870 -502262.5870 0.0000 -4358.4721 -4344.7882 1679035.8801 -4358.4721 -4344.7882
ENERGY: 2000 17252.5672 19315.8190 22669.2743 66.5852 -598373.7896 35015.6880 315.2933 0.0000 0.0000 -503738.5627 0.0000 -503738.5627 -503738.5627 0.0000 -4244.6307 -4253.5704 1679035.8801 -4244.6307 -4253.5704
ENERGY: 2500 17368.6794 19340.9781 22646.7554 66.3563 -600226.5706 35951.3794 314.2399 0.0000 0.0000 -504538.1822 0.0000 -504538.1822 -504538.1822 0.0000 -4123.8206 -4113.1573 1679035.8801 -4123.8206 -4113.1573
TCL: Running for 500000 steps
ETITLE: TS BOND ANGLE DIHED IMPRP ELECT VDW BOUNDARY MISC KINETIC TOTAL TEMP POTENTIAL TOTAL3 TEMPAVG PRESSURE GPRESSURE VOLUME PRESSAVG GPRESSAVG
ENERGY: 5000 7965.1544 39532.5368 27777.9767 513.1666 -440053.0805 13189.7650 397.0722 0.0000 109930.1680 -240747.2410 299.9828 -350677.4090 -240468.5567 266.3580 -13565.7280 -98.6633 1674525.7739 -6.2831 -0.8143
ENERGY: 105000 8003.7848 40495.7897 27960.5860 516.6916 -432277.3337 10748.8150 393.8357 0.0000 113110.4150 -231047.4159 308.6612 -344157.8309 -230772.7394 309.2582 -13282.2921 -32.5291 1663055.2565 4.1346 4.1398
ENERGY: 205000 7949.7353 40742.4591 27781.2579 519.4332 -432868.9617 11115.2920 385.2839 0.0000 113750.4280 -230625.0723 310.4077 -344375.5003 -230341.5090 310.0232 -13182.1444 104.4922 1659741.5898 -1.1858 -1.1981
ENERGY: 300000 8027.0173 40616.5749 27892.1666 506.6033 -431917.4596 10078.9929 383.0401 0.0000 113561.3652 -230851.6994 309.8918 -344413.0645 -230565.1027 309.8871 -13459.8357 -190.9730 1659495.2603 4.5511 4.5907
ENERGY: 400000 8155.1065 40574.2862 27771.2463 500.5152 -433251.6658 10679.8418 405.4742 0.0000 113484.7092 -231680.4864 309.6826 -345165.1956 -231385.0549 309.9421 -13315.3166 -12.8080 1656922.7715 3.8572 3.8047
ENERGY: 500000 8061.2359 40715.9058 27808.7591 478.2603 -432590.1788 10729.3325 413.0324 0.0000 112917.5438 -231466.1091 308.1349 -344383.6528 -231182.4470 310.0458 -13349.4595 -63.7351 1659882.4315 3.5791 3.5208
