Info: SIMULATION PARAMETERS:
Info: TIMESTEP               1
Info: NUMBER OF STEPS        2000000
Info: STEPS PER CYCLE        20
Info: PERIODIC CELL BASIS 1  122.673 0 0
Info: PERIODIC CELL BASIS 2  0 123.773 0
Info: PERIODIC CELL BASIS 3  0 0 109.32
Info: PERIODIC CELL CENTER   -0.436 0.199 0.879
Info: WRAPPING ALL CLUSTERS AROUND PERIODIC BOUNDARIES ON OUTPUT.
Info: FIRST LDB TIMESTEP     100
Info: LAST LDB TIMESTEP     -1
Info: HOM BACKGROUND SCALING 1
Info: PME BACKGROUND SCALING 1
Info: REMOVING PATCHES FROM PROCESSOR 0
Info: MIN ATOMS PER PATCH    40
Info: VELOCITY FILE          ../phase2b/dat_phase2b1.restart.vel
Info: CENTER OF MASS MOVING INITIALLY? NO
Info: DIELECTRIC             1
Info: EXCLUDE                SCALED ONE-FOUR
Info: 1-4 ELECTROSTATICS SCALED BY 1
Info: MODIFIED 1-4 VDW PARAMETERS WILL BE USED
Info: DCD FILENAME           ./dat_phase2b2.dcd
Info: DCD FREQUENCY          5000
Info: DCD FIRST STEP         2005000
Info: DCD FILE WILL CONTAIN UNIT CELL DATA
Info: XST FILENAME           ./dat_phase2b2.xst
Info: XST FREQUENCY          5000
Info: NO VELOCITY DCD OUTPUT
Info: NO FORCE DCD OUTPUT
Info: OUTPUT FILENAME        ./dat_phase2b2
Info: RESTART FILENAME       ./dat_phase2b2.restart
Info: RESTART FREQUENCY      5000
Info: BINARY RESTART FILES WILL BE USED
Info: SWITCHING ACTIVE
Info: SWITCHING ON           10
Info: SWITCHING OFF          12
Info: PAIRLIST DISTANCE      13.5
Info: PAIRLIST SHRINK RATE   0.01
Info: PAIRLIST GROW RATE     0.01
Info: PAIRLIST TRIGGER       0.3
Info: PAIRLISTS PER CYCLE    2
Info: PAIRLISTS ENABLED
Info: MARGIN                 1.5
Info: HYDROGEN GROUP CUTOFF  2.5
Info: PATCH DIMENSION        17.5
Info: ENERGY OUTPUT STEPS    5000
Info: CROSSTERM ENERGY INCLUDED IN DIHEDRAL
Info: TIMING OUTPUT STEPS    5000
Info: PRESSURE OUTPUT STEPS  5000
Info: HARMONIC CONSTRAINTS ACTIVE
Info: HARMONIC CONS EXP      2
Info: LANGEVIN DYNAMICS ACTIVE
Info: LANGEVIN TEMPERATURE   310
Info: LANGEVIN DAMPING COEFFICIENT IS 5 INVERSE PS
Info: LANGEVIN DYNAMICS NOT APPLIED TO HYDROGENS
Info: LANGEVIN PISTON PRESSURE CONTROL ACTIVE
Info:        TARGET PRESSURE IS 1.01325 BAR
Info:     OSCILLATION PERIOD IS 200 FS
Info:             DECAY TIME IS 50 FS
Info:     PISTON TEMPERATURE IS 310 K
Info:       PRESSURE CONTROL IS GROUP-BASED
Info:    INITIAL STRAIN RATE IS 9.98101e-06 9.98101e-06 2.38982e-06
Info:       CELL FLUCTUATION IS ANISOTROPIC
Info:     SHAPE OF CELL IS CONSTRAINED IN X-Y PLANE
Info: PARTICLE MESH EWALD (PME) ACTIVE
Info: PME TOLERANCE               1e-06
Info: PME EWALD COEFFICIENT       0.257952
Info: PME INTERPOLATION ORDER     4
Info: PME GRID DIMENSIONS         128 128 112
Info: PME MAXIMUM GRID SPACING    1
Info: FULL ELECTROSTATIC EVALUATION FREQUENCY      4
Info: USING VERLET I (r-RESPA) MTS SCHEME.
Info: C1 SPLITTING OF LONG RANGE ELECTROSTATICS
Info: PLACING ATOMS IN PATCHES BY HYDROGEN GROUPS
Info: RIGID BONDS TO HYDROGEN : ALL
Info:         ERROR TOLERANCE : 1e-08
Info:          MAX ITERATIONS : 100
Info: RIGID WATER USING SETTLE ALGORITHM
Info: NONBONDED FORCES EVALUATED EVERY 2 STEPS
Info: RANDOM NUMBER SEED     1406654953
Info: USE HYDROGEN BONDS?    NO
Info: COORDINATE PDB         ../phase2b/dat_phase2b1.coor
Info: STRUCTURE FILE         ../common/ionized.psf
Info: PARAMETER file: CHARMM format!
Info: PARAMETERS             ../common/parameters_all.prm
Info: USING ARITHMETIC MEAN TO COMBINE L-J SIGMA PARAMETERS
Info: BINARY COORDINATES     ../phase2b/dat_phase2b1.restart.coor
Info: FIRST TIMESTEP         2000000
Info: SUMMARY OF PARAMETERS:
Info: 231 BONDS
Info: 615 ANGLES
Info: 936 DIHEDRAL
Info: 55 IMPROPER
Info: 6 CROSSTERM
Info: 152 VDW
Info: 0 VDW_PAIRS
Info: 0 NBTHOLE_PAIRS
Info: STRUCTURE SUMMARY:
Info: 170482 ATOMS
Info: 136083 BONDS
Info: 163960 ANGLES
Info: 181135 DIHEDRALS
Info: 2060 IMPROPERS
Info: 0 CROSSTERMS
Info: 0 EXCLUSIONS
Info: 1845 CONSTRAINTS
Info: 142629 RIGID BONDS
Info: 368817 DEGREES OF FREEDOM
Info: 61764 HYDROGEN GROUPS
Info: 4 ATOMS IN LARGEST HYDROGEN GROUP
Info: 61764 MIGRATION GROUPS
Info: 4 ATOMS IN LARGEST MIGRATION GROUP
Info: TOTAL MASS = 1.01823e+06 amu
Info: TOTAL CHARGE = 4.80842e-05 e
Info: MASS DENSITY = 1.01866 g/cm^3
Info: ATOM DENSITY = 0.102708 atoms/A^3
Info: REMOVING COM VELOCITY 0.0120357 0.00282975 0.0145963
Info: NONBONDED TABLE R-SQUARED SPACING: 0.0625
Info: NONBONDED TABLE SIZE: 769 POINTS
TCL: Running for 500000 steps
ETITLE: TS BOND ANGLE DIHED IMPRP ELECT VDW BOUNDARY MISC KINETIC TOTAL TEMP POTENTIAL TOTAL3 TEMPAVG PRESSURE GPRESSURE VOLUME PRESSAVG GPRESSAVG
ENERGY: 2000000 8061.2359 40715.9058 27808.7591 478.2603 -432594.1942 10733.1338 206.5162 0.0000 112909.8895 -231680.4936 308.1140 -344590.3831 -231387.5939 308.1140 -13338.9156 -48.3131 1659871.7236 -13338.9156 -48.3131
ENERGY: 2100000 8023.6521 40939.2844 27740.7776 513.2951 -432516.5185 10763.3531 278.2027 0.0000 113107.8484 -231150.1051 308.6542 -344257.9535 -230861.3224 309.9233 -13248.1592 -18.9057 1662465.3975 -1.2309 -1.1126
ENERGY: 2200000 8066.6101 40556.2946 27809.3219 516.8011 -432828.7153 11160.3260 289.5092 0.0000 113355.8330 -231074.0194 309.3309 -344429.8524 -230783.1640 309.7352 -13125.6307 130.5180 1661644.0614 -4.3255 -4.3483
ENERGY: 2300000 8040.9803 40363.6885 27696.7323 510.8378 -432243.5196 10215.7485 295.3920 0.0000 113448.7211 -231671.4191 309.5844 -345120.1401 -231392.9386 309.7120 -13308.1059 -51.9472 1660976.6746 -0.3577 -0.4104
ENERGY: 2400000 8009.1000 40482.9259 27739.8118 528.7721 -432902.1441 10882.9621 280.0966 0.0000 113194.9600 -231783.5157 308.8919 -344978.4756 -231509.3615 309.8893 -13368.2221 -59.4048 1659237.9934 -0.1860 -0.2157
ENERGY: 2500000 8027.1089 40690.8696 27805.5034 484.7939 -432901.9310 10971.2345 276.1416 0.0000 113890.2896 -230755.9895 310.7894 -344646.2791 -230480.8175 309.7401 -13221.3416 66.5895 1659356.1064 2.5144 2.5518
