Info: SIMULATION PARAMETERS:
Info: TIMESTEP               1
Info: NUMBER OF STEPS        0
Info: STEPS PER CYCLE        20
Info: PERIODIC CELL BASIS 1  179.672 0 0
Info: PERIODIC CELL BASIS 2  0 181.877 0
Info: PERIODIC CELL BASIS 3  0 0 94.76
Info: PERIODIC CELL CENTER   39.757 40.344 2.181
Info: WRAPPING ALL CLUSTERS AROUND PERIODIC BOUNDARIES ON OUTPUT.
Info: FIRST LDB TIMESTEP     100
Info: LAST LDB TIMESTEP     -1
Info: HOM BACKGROUND SCALING 1
Info: PME BACKGROUND SCALING 1
Info: REMOVING PATCHES FROM PROCESSOR 0
Info: MIN ATOMS PER PATCH    40
Info: INITIAL TEMPERATURE    310
Info: CENTER OF MASS MOVING INITIALLY? NO
Info: DIELECTRIC             1
Info: EXCLUDE                SCALED ONE-FOUR
Info: 1-4 ELECTROSTATICS SCALED BY 1
Info: MODIFIED 1-4 VDW PARAMETERS WILL BE USED
Info: DCD FILENAME           ./dat_phase1.dcd
Info: DCD FREQUENCY          5000
Info: DCD FIRST STEP         5000
Info: DCD FILE WILL CONTAIN UNIT CELL DATA
Info: XST FILENAME           ./dat_phase1.xst
Info: XST FREQUENCY          5000
Info: NO VELOCITY DCD OUTPUT
Info: NO FORCE DCD OUTPUT
Info: OUTPUT FILENAME        ./dat_phase1
Info: RESTART FILENAME       ./dat_phase1.restart
Info: RESTART FREQUENCY      5000
Info: BINARY RESTART FILES WILL BE USED
Info: SWITCHING ACTIVE
Info: SWITCHING ON           10
Info: SWITCHING OFF          12
Info: PAIRLIST DISTANCE      13.5
Info: PAIRLIST SHRINK RATE   0.01
Info: PAIRLIST GROW RATE     0.01
Info: PAIRLIST TRIGGER       0.3
Info: PAIRLISTS PER CYCLE    2
Info: PAIRLISTS ENABLED
Info: MARGIN                 1.5
Info: HYDROGEN GROUP CUTOFF  2.5
Info: PATCH DIMENSION        17.5
Info: ENERGY OUTPUT STEPS    5000
Info: CROSSTERM ENERGY INCLUDED IN DIHEDRAL
Info: TIMING OUTPUT STEPS    5000
Info: PRESSURE OUTPUT STEPS  5000
Info: FIXED ATOMS ACTIVE
Info: LANGEVIN DYNAMICS ACTIVE
Info: LANGEVIN TEMPERATURE   310
Info: LANGEVIN DAMPING COEFFICIENT IS 5 INVERSE PS
Info: LANGEVIN DYNAMICS NOT APPLIED TO HYDROGENS
Info: PARTICLE MESH EWALD (PME) ACTIVE
Info: PME TOLERANCE               1e-06
Info: PME EWALD COEFFICIENT       0.257952
Info: PME INTERPOLATION ORDER     4
Info: PME GRID DIMENSIONS         180 192 96
Info: PME MAXIMUM GRID SPACING    1
Info: FULL ELECTROSTATIC EVALUATION FREQUENCY      4
Info: USING VERLET I (r-RESPA) MTS SCHEME.
Info: C1 SPLITTING OF LONG RANGE ELECTROSTATICS
Info: PLACING ATOMS IN PATCHES BY HYDROGEN GROUPS
Info: RIGID BONDS TO HYDROGEN : ALL
Info:         ERROR TOLERANCE : 1e-08
Info:          MAX ITERATIONS : 100
Info: RIGID WATER USING SETTLE ALGORITHM
Info: NONBONDED FORCES EVALUATED EVERY 2 STEPS
Info: RANDOM NUMBER SEED     1403918034
Info: USE HYDROGEN BONDS?    NO
Info: COORDINATE PDB         ../common/ionized.pdb
Info: STRUCTURE FILE         ../common/ionized.psf
Info: PARAMETER file: CHARMM format!
Info: PARAMETERS             ../common/parameters_all.prm
Info: USING ARITHMETIC MEAN TO COMBINE L-J SIGMA PARAMETERS
Info: SUMMARY OF PARAMETERS:
Info: 231 BONDS
Info: 615 ANGLES
Info: 936 DIHEDRAL
Info: 55 IMPROPER
Info: 6 CROSSTERM
Info: 152 VDW
Info: 0 VDW_PAIRS
Info: 0 NBTHOLE_PAIRS
Info: STRUCTURE SUMMARY:
Info: 256039 ATOMS
Info: 201645 BONDS
Info: 233451 ANGLES
Info: 250328 DIHEDRALS
Info: 2581 IMPROPERS
Info: 0 CROSSTERMS
Info: 0 EXCLUSIONS
Info: 183589 FIXED ATOMS
Info: 217662 RIGID BONDS
Info: 172122 RIGID BONDS BETWEEN FIXED ATOMS
Info: 171810 DEGREES OF FREEDOM
Info: 92055 HYDROGEN GROUPS
Info: 4 ATOMS IN LARGEST HYDROGEN GROUP
Info: 92055 MIGRATION GROUPS
Info: 4 ATOMS IN LARGEST MIGRATION GROUP
Info: 65145 HYDROGEN GROUPS WITH ALL ATOMS FIXED
Info: TOTAL MASS = 1.5284e+06 amu
Info: TOTAL CHARGE = -0.999933 e
Info: MASS DENSITY = 0.819623 g/cm^3
Info: ATOM DENSITY = 0.0826843 atoms/A^3
Info: REMOVING COM VELOCITY 0.00264984 0.00256985 0.00371024
Info: NONBONDED TABLE R-SQUARED SPACING: 0.0625
Info: NONBONDED TABLE SIZE: 769 POINTS
TCL: Minimizing for 5000 steps
ETITLE: TS BOND ANGLE DIHED IMPRP ELECT VDW BOUNDARY MISC KINETIC TOTAL TEMP POTENTIAL TOTAL3 TEMPAVG PRESSURE GPRESSURE VOLUME PRESSAVG GPRESSAVG
ENERGY: 0 7091.6491 39448.6935 31567.8300 383.3366 -2867478.2664 9999999999.9999 0.0000 0.0000 0.0000 9999999999.9999 0.0000 9999999999.9999 9999999999.9999 0.0000 9999999999.9999 9999999999.9999 3096586.4486 9999999999.9999 9999999999.9999
ENERGY: 1000 7406.0377 42191.6475 37174.7651 347.4286 -2866032.1492 15803.5437 0.0000 0.0000 0.0000 -2763108.7267 0.0000 -2763108.7267 -2763108.7267 0.0000 4524.4762 4613.5487 3096586.4486 4524.4762 4613.5487
ENERGY: 2000 1262.0568 12277.6039 34413.9461 203.9059 -2867552.3164 -17796.3408 0.0000 0.0000 0.0000 -2837191.1445 0.0000 -2837191.1445 -2837191.1445 0.0000 829.4198 857.4432 3096586.4486 829.4198 857.4432
ENERGY: 3000 746.9365 8190.3051 30578.0060 157.1017 -2868559.9104 -24806.6154 0.0000 0.0000 0.0000 -2853694.1765 0.0000 -2853694.1765 -2853694.1765 0.0000 41.2690 57.0072 3096586.4486 41.2690 57.0072
ENERGY: 4000 708.3440 7706.4622 29513.6214 143.3992 -2868860.0156 -25989.5709 0.0000 0.0000 0.0000 -2856777.7598 0.0000 -2856777.7598 -2856777.7598 0.0000 -2.0293 -0.5361 3096586.4486 -2.0293 -0.5361
ENERGY: 5000 694.6492 7477.4708 29252.9273 143.1329 -2868951.9339 -26293.5106 0.0000 0.0000 0.0000 -2857677.2644 0.0000 -2857677.2644 -2857677.2644 0.0000 -17.7548 -20.4839 3096586.4486 -17.7548 -20.4839
TCL: Running for 500000 steps
ETITLE: TS BOND ANGLE DIHED IMPRP ELECT VDW BOUNDARY MISC KINETIC TOTAL TEMP POTENTIAL TOTAL3 TEMPAVG PRESSURE GPRESSURE VOLUME PRESSAVG GPRESSAVG
ENERGY: 5000 620.0417 7528.4718 29253.8544 143.2400 -2868890.0698 -26241.8182 0.0000 0.0000 52957.2720 -2804629.0082 310.2184 -2857586.2802 -2804651.2910 310.2184 301.7295 371.5325 3096586.4486 301.7295 371.5325
ENERGY: 105000 7404.1263 41232.0377 33061.3152 450.3592 -2870119.7496 -23219.7792 0.0000 0.0000 52973.1663 -2758218.5242 310.3115 -2811191.6905 -2757962.8365 309.8337 782.4119 866.8910 3096586.4486 -17.8650 -18.3323
ENERGY: 205000 7284.5931 41455.4828 32880.9354 432.8573 -2870576.5131 -23338.0937 0.0000 0.0000 52552.0295 -2759308.7089 307.8445 -2811860.7384 -2759032.8851 309.5604 -162.0837 -82.3328 3096586.4486 -23.0629 -23.5206
ENERGY: 305000 7246.4995 41144.3966 32912.4131 423.7247 -2870672.2335 -23578.8254 0.0000 0.0000 52945.2662 -2759578.7589 310.1481 -2812524.0251 -2759292.9755 309.3539 118.2149 205.6579 3096586.4486 -1.9605 -2.4563
ENERGY: 405000 7432.6893 41299.0098 32847.5612 401.9339 -2870786.0498 -23353.1581 0.0000 0.0000 52597.3392 -2759560.6745 308.1099 -2812158.0137 -2759300.8415 309.9782 277.5784 358.6170 3096586.4486 -9.5947 -10.0729
ENERGY: 505000 7244.9500 41151.8195 32844.0557 421.2868 -2870707.9226 -23769.7320 0.0000 0.0000 52979.7842 -2759835.7584 310.3503 -2812815.5426 -2759557.3810 310.2047 -598.3530 -514.1759 3096586.4486 -21.7200 -22.1954
