Info: SIMULATION PARAMETERS:
Info: TIMESTEP               1
Info: NUMBER OF STEPS        0
Info: STEPS PER CYCLE        12
Info: PERIODIC CELL BASIS 1  169.368 0 0
Info: PERIODIC CELL BASIS 2  0 176.496 0
Info: PERIODIC CELL BASIS 3  0 0 92.759
Info: PERIODIC CELL CENTER   39.547 42.92 2.551
Info: WRAPPING ALL CLUSTERS AROUND PERIODIC BOUNDARIES ON OUTPUT.
Info: FIRST LDB TIMESTEP     60
Info: LAST LDB TIMESTEP     -1
Info: HOM BACKGROUND SCALING 1
Info: PME BACKGROUND SCALING 1
Info: MAX SELF PARTITIONS    20
Info: MAX PAIR PARTITIONS    8
Info: SELF PARTITION ATOMS   154
Info: SELF2 PARTITION ATOMS   154
Info: PAIR PARTITION ATOMS   318
Info: PAIR2 PARTITION ATOMS  637
Info: MIN ATOMS PER PATCH    100
Info: INITIAL TEMPERATURE    310
Info: CENTER OF MASS MOVING INITIALLY? NO
Info: DIELECTRIC             1
Info: EXCLUDE                SCALED ONE-FOUR
Info: 1-4 ELECTROSTATICS SCALED BY 1
Info: MODIFIED 1-4 VDW PARAMETERS WILL BE USED
Info: DCD FILENAME           ./dat_phase_2c.dcd
Info: DCD FREQUENCY          6000
Info: DCD FIRST STEP         6000
Info: DCD FILE WILL CONTAIN UNIT CELL DATA
Info: XST FILENAME           ./dat_phase_2c.xst
Info: XST FREQUENCY          6000
Info: NO VELOCITY DCD OUTPUT
Info: OUTPUT FILENAME        ./dat_phase_2c
Info: RESTART FILENAME       ./dat_phase_2c.restart
Info: RESTART FREQUENCY      6000
Info: BINARY RESTART FILES WILL BE USED
Info: SWITCHING ACTIVE
Info: SWITCHING ON           10
Info: SWITCHING OFF          12
Info: PAIRLIST DISTANCE      13.5
Info: PAIRLIST SHRINK RATE   0.01
Info: PAIRLIST GROW RATE     0.01
Info: PAIRLIST TRIGGER       0.3
Info: PAIRLISTS PER CYCLE    2
Info: PAIRLISTS ENABLED
Info: MARGIN                 3
Info: HYDROGEN GROUP CUTOFF  2.5
Info: PATCH DIMENSION        19
Info: ENERGY OUTPUT STEPS    6000
Info: CROSSTERM ENERGY INCLUDED IN DIHEDRAL
Info: TIMING OUTPUT STEPS    6000
Info: PRESSURE OUTPUT STEPS  6000
Info: LANGEVIN DYNAMICS ACTIVE
Info: LANGEVIN TEMPERATURE   310
Info: LANGEVIN DAMPING COEFFICIENT IS 5 INVERSE PS
Info: LANGEVIN DYNAMICS NOT APPLIED TO HYDROGENS
Info: LANGEVIN PISTON PRESSURE CONTROL ACTIVE
Info:        TARGET PRESSURE IS 1.01325 BAR
Info:     OSCILLATION PERIOD IS 200 FS
Info:             DECAY TIME IS 50 FS
Info:     PISTON TEMPERATURE IS 310 K
Info:       PRESSURE CONTROL IS GROUP-BASED
Info:    INITIAL STRAIN RATE IS 0 0 0
Info:       CELL FLUCTUATION IS ANISOTROPIC
Info:     SHAPE OF CELL IS CONSTRAINED IN X-Y PLANE
Info: PARTICLE MESH EWALD (PME) ACTIVE
Info: PME TOLERANCE               1e-06
Info: PME EWALD COEFFICIENT       0.257952
Info: PME INTERPOLATION ORDER     4
Info: PME GRID DIMENSIONS         176 180 96
Info: PME MAXIMUM GRID SPACING    1
Info: FULL ELECTROSTATIC EVALUATION FREQUENCY      3
Info: USING VERLET I (r-RESPA) MTS SCHEME.
Info: C1 SPLITTING OF LONG RANGE ELECTROSTATICS
Info: PLACING ATOMS IN PATCHES BY HYDROGEN GROUPS
Info: RIGID BONDS TO HYDROGEN : ALL
Info:         ERROR TOLERANCE : 1e-08
Info:          MAX ITERATIONS : 100
Info: RIGID WATER USING SETTLE ALGORITHM
Info: RANDOM NUMBER SEED     1400528511
Info: USE HYDROGEN BONDS?    NO
Info: COORDINATE PDB         /home/jam2079/Pathrover/3tt3/phase2c/ionized.pdb
Info: STRUCTURE FILE         /home/jam2079/Pathrover/3tt3/phase2c/ionized.psf
Info: PARAMETER file: CHARMM format!
Info: PARAMETERS             /home/jam2079/Pathrover/3tt3/common/parameters_all.prm
Info: USING ARITHMETIC MEAN TO COMBINE L-J SIGMA PARAMETERS
Info: SUMMARY OF PARAMETERS:
Info: 231 BONDS
Info: 615 ANGLES
Info: 936 DIHEDRAL
Info: 55 IMPROPER
Info: 6 CROSSTERM
Info: 152 VDW
Info: 0 VDW_PAIRS
Info: STRUCTURE SUMMARY:
Info: 222887 ATOMS
Info: 173101 BONDS
Info: 191330 ANGLES
Info: 198100 DIHEDRALS
Info: 2265 IMPROPERS
Info: 0 CROSSTERMS
Info: 0 EXCLUSIONS
Info: 192349 RIGID BONDS
Info: 476312 DEGREES OF FREEDOM
Info: 79781 HYDROGEN GROUPS
Info: 4 ATOMS IN LARGEST HYDROGEN GROUP
Info: 79781 MIGRATION GROUPS
Info: 4 ATOMS IN LARGEST MIGRATION GROUP
Info: TOTAL MASS = 1.33362e+06 amu
Info: TOTAL CHARGE = 3.00005 e
Info: MASS DENSITY = 0.798674 g/cm^3
Info: ATOM DENSITY = 0.0803827 atoms/A^3
Info: REMOVING COM VELOCITY 0.015777 -0.0103224 -0.0301072
Info: NONBONDED TABLE R-SQUARED SPACING: 0.0625
Info: NONBONDED TABLE SIZE: 769 POINTS
TCL: Minimizing for 6000 steps
ETITLE: TS BOND ANGLE DIHED IMPRP ELECT VDW BOUNDARY MISC KINETIC TOTAL TEMP POTENTIAL TOTAL3 TEMPAVG PRESSURE GPRESSURE VOLUME PRESSAVG GPRESSAVG
ENERGY: 0 8834.3088 44468.3297 30274.7620 556.3902 -573371.0901 9999999999.9999 0.0000 0.0000 0.0000 9999999999.9999 0.0000 9999999999.9999 9999999999.9999 0.0000 9999999999.9999 9999999999.9999 2772823.6914 9999999999.9999 9999999999.9999
ENERGY: 1200 31132.8498 42201.3961 28040.6464 144.0761 -806975.3267 574469.2830 0.0000 0.0000 0.0000 -130987.0753 0.0000 -130987.0753 -130987.0753 0.0000 62743.8855 63546.6116 2772823.6914 62743.8855 63546.6116
ENERGY: 2400 25641.0116 34119.0979 26971.3816 105.1393 -877934.4264 379026.5780 0.0000 0.0000 0.0000 -412071.2180 0.0000 -412071.2180 -412071.2180 0.0000 39604.6477 39942.1684 2772823.6914 39604.6477 39942.1684
ENERGY: 3600 26763.4621 31489.4923 26079.5439 94.5934 -892812.3461 281908.7603 0.0000 0.0000 0.0000 -526476.4941 0.0000 -526476.4941 -526476.4941 0.0000 27926.5907 28053.6866 2772823.6914 27926.5907 28053.6866
ENERGY: 4800 25843.8852 29490.4967 25612.3952 92.0883 -891995.2253 227567.1024 0.0000 0.0000 0.0000 -583389.2575 0.0000 -583389.2575 -583389.2575 0.0000 21625.9719 21643.0379 2772823.6914 21625.9719 21643.0379
ENERGY: 6000 25818.1487 28774.1368 25347.3932 98.0267 -887226.4696 188590.0052 0.0000 0.0000 0.0000 -618598.7589 0.0000 -618598.7589 -618598.7589 0.0000 17045.3314 17075.7032 2772823.6914 17045.3314 17075.7032
