Info: SIMULATION PARAMETERS:
Info: TIMESTEP               1
Info: NUMBER OF STEPS        0
Info: STEPS PER CYCLE        20
Info: PERIODIC CELL BASIS 1  150.825 0 0
Info: PERIODIC CELL BASIS 2  0 152.676 0
Info: PERIODIC CELL BASIS 3  0 0 108.724
Info: PERIODIC CELL CENTER   39.757 40.344 2.181
Info: WRAPPING ALL CLUSTERS AROUND PERIODIC BOUNDARIES ON OUTPUT.
Info: FIRST LDB TIMESTEP     100
Info: LAST LDB TIMESTEP     -1
Info: HOM BACKGROUND SCALING 1
Info: PME BACKGROUND SCALING 1
Info: REMOVING PATCHES FROM PROCESSOR 0
Info: MIN ATOMS PER PATCH    40
Info: VELOCITY FILE          ../phase1c/dat_phase1c.vel
Info: CENTER OF MASS MOVING INITIALLY? NO
Info: DIELECTRIC             1
Info: EXCLUDE                SCALED ONE-FOUR
Info: 1-4 ELECTROSTATICS SCALED BY 1
Info: MODIFIED 1-4 VDW PARAMETERS WILL BE USED
Info: DCD FILENAME           ./dat_equil_phase2a1.np.dcd
Info: DCD FREQUENCY          5000
Info: DCD FIRST STEP         5000
Info: DCD FILE WILL CONTAIN UNIT CELL DATA
Info: XST FILENAME           ./dat_equil_phase2a1.np.xst
Info: XST FREQUENCY          5000
Info: NO VELOCITY DCD OUTPUT
Info: NO FORCE DCD OUTPUT
Info: OUTPUT FILENAME        ./dat_equil_phase2a1.np
Info: RESTART FILENAME       ./dat_equil_phase2a1.np.restart
Info: RESTART FREQUENCY      5000
Info: BINARY RESTART FILES WILL BE USED
Info: SWITCHING ACTIVE
Info: SWITCHING ON           10
Info: SWITCHING OFF          12
Info: PAIRLIST DISTANCE      13.5
Info: PAIRLIST SHRINK RATE   0.01
Info: PAIRLIST GROW RATE     0.01
Info: PAIRLIST TRIGGER       0.3
Info: PAIRLISTS PER CYCLE    2
Info: PAIRLISTS ENABLED
Info: MARGIN                 1.5
Info: HYDROGEN GROUP CUTOFF  2.5
Info: PATCH DIMENSION        17.5
Info: ENERGY OUTPUT STEPS    5000
Info: CROSSTERM ENERGY INCLUDED IN DIHEDRAL
Info: TIMING OUTPUT STEPS    5000
Info: PRESSURE OUTPUT STEPS  5000
Info: HARMONIC CONSTRAINTS ACTIVE
Info: HARMONIC CONS EXP      2
Info: LANGEVIN DYNAMICS ACTIVE
Info: LANGEVIN TEMPERATURE   310
Info: LANGEVIN DAMPING COEFFICIENT IS 5 INVERSE PS
Info: LANGEVIN DYNAMICS NOT APPLIED TO HYDROGENS
Info: LANGEVIN PISTON PRESSURE CONTROL ACTIVE
Info:        TARGET PRESSURE IS 1.01325 BAR
Info:     OSCILLATION PERIOD IS 200 FS
Info:             DECAY TIME IS 50 FS
Info:     PISTON TEMPERATURE IS 310 K
Info:       PRESSURE CONTROL IS GROUP-BASED
Info:    INITIAL STRAIN RATE IS -2.70051e-05 -2.70051e-05 -2.81921e-05
Info:       CELL FLUCTUATION IS ANISOTROPIC
Info:     SHAPE OF CELL IS CONSTRAINED IN X-Y PLANE
Info: PARTICLE MESH EWALD (PME) ACTIVE
Info: PME TOLERANCE               1e-06
Info: PME EWALD COEFFICIENT       0.257952
Info: PME INTERPOLATION ORDER     4
Info: PME GRID DIMENSIONS         160 160 112
Info: PME MAXIMUM GRID SPACING    1
Info: FULL ELECTROSTATIC EVALUATION FREQUENCY      4
Info: USING VERLET I (r-RESPA) MTS SCHEME.
Info: C1 SPLITTING OF LONG RANGE ELECTROSTATICS
Info: PLACING ATOMS IN PATCHES BY HYDROGEN GROUPS
Info: RIGID BONDS TO HYDROGEN : ALL
Info:         ERROR TOLERANCE : 1e-08
Info:          MAX ITERATIONS : 100
Info: RIGID WATER USING SETTLE ALGORITHM
Info: NONBONDED FORCES EVALUATED EVERY 2 STEPS
Info: RANDOM NUMBER SEED     1404171802
Info: USE HYDROGEN BONDS?    NO
Info: COORDINATE PDB         ../phase1c/dat_phase1c.coor
Info: STRUCTURE FILE         ../common/ionized.psf
Info: PARAMETER file: CHARMM format!
Info: PARAMETERS             ../common/parameters_all.prm
Info: USING ARITHMETIC MEAN TO COMBINE L-J SIGMA PARAMETERS
Info: SUMMARY OF PARAMETERS:
Info: 231 BONDS
Info: 615 ANGLES
Info: 936 DIHEDRAL
Info: 55 IMPROPER
Info: 6 CROSSTERM
Info: 152 VDW
Info: 0 VDW_PAIRS
Info: 0 NBTHOLE_PAIRS
Info: STRUCTURE SUMMARY:
Info: 256039 ATOMS
Info: 201645 BONDS
Info: 233451 ANGLES
Info: 250328 DIHEDRALS
Info: 2581 IMPROPERS
Info: 0 CROSSTERMS
Info: 0 EXCLUSIONS
Info: 2063 CONSTRAINTS
Info: 217662 RIGID BONDS
Info: 550455 DEGREES OF FREEDOM
Info: 92055 HYDROGEN GROUPS
Info: 4 ATOMS IN LARGEST HYDROGEN GROUP
Info: 92055 MIGRATION GROUPS
Info: 4 ATOMS IN LARGEST MIGRATION GROUP
Info: TOTAL MASS = 1.5284e+06 amu
Info: TOTAL CHARGE = -0.999933 e
Info: MASS DENSITY = 1.01374 g/cm^3
Info: ATOM DENSITY = 0.102267 atoms/A^3
Info: REMOVING COM VELOCITY -0.00431457 3.25192e-06 -0.016893
Info: NONBONDED TABLE R-SQUARED SPACING: 0.0625
Info: NONBONDED TABLE SIZE: 769 POINTS
TCL: Minimizing for 2500 steps
ETITLE: TS BOND ANGLE DIHED IMPRP ELECT VDW BOUNDARY MISC KINETIC TOTAL TEMP POTENTIAL TOTAL3 TEMPAVG PRESSURE GPRESSURE VOLUME PRESSAVG GPRESSAVG
ENERGY: 0 10426.4429 55612.7288 38699.1831 495.5071 -669995.4761 23069.8001 0.0000 0.0000 0.0000 -541691.8141 0.0000 -541691.8141 -541691.8141 0.0000 12699.4274 -1355.0660 2503626.4386 12699.4274 -1355.0660
ENERGY: 500 25379.4719 28554.5688 32243.2075 83.0956 -900021.0535 47955.0909 89.4776 0.0000 0.0000 -765716.1411 0.0000 -765716.1411 -765716.1411 0.0000 -5211.5717 -5246.4735 2503626.4386 -5211.5717 -5246.4735
ENERGY: 1000 26697.2559 28460.9347 31807.0143 80.6947 -920658.3168 55750.1484 99.6820 0.0000 0.0000 -777762.5868 0.0000 -777762.5868 -777762.5868 0.0000 -4946.6425 -4866.0465 2503626.4386 -4946.6425 -4866.0465
ENERGY: 1500 26912.5264 28657.0907 31645.5646 79.9978 -928859.6368 59430.4605 102.9869 0.0000 0.0000 -782031.0098 0.0000 -782031.0098 -782031.0098 0.0000 -4631.4504 -4613.4610 2503626.4386 -4631.4504 -4613.4610
ENERGY: 2000 27089.2385 28763.1987 31581.5559 79.2264 -933028.1280 61388.5139 106.7531 0.0000 0.0000 -784019.6416 0.0000 -784019.6416 -784019.6416 0.0000 -4469.8412 -4465.1877 2503626.4386 -4469.8412 -4465.1877
ENERGY: 2500 27157.8254 28911.9413 31538.4946 79.4447 -935436.2702 62340.8192 107.4900 0.0000 0.0000 -785300.2550 0.0000 -785300.2550 -785300.2550 0.0000 -4380.1231 -4396.1888 2503626.4386 -4380.1231 -4396.1888
TCL: Running for 250000 steps
ETITLE: TS BOND ANGLE DIHED IMPRP ELECT VDW BOUNDARY MISC KINETIC TOTAL TEMP POTENTIAL TOTAL3 TEMPAVG PRESSURE GPRESSURE VOLUME PRESSAVG GPRESSAVG
ENERGY: 5000 10993.3800 54925.2017 38546.9071 632.5054 -681212.4861 25027.1405 225.1830 0.0000 164428.8905 -386433.2779 300.6399 -550862.1685 -386017.1354 266.2072 -14256.5968 -70.3362 2496371.0908 -3.5228 2.1380
ENERGY: 55000 10951.1106 56184.5582 38700.3454 659.3173 -671504.8381 22590.7815 232.8509 0.0000 169076.9845 -373108.8896 309.1385 -542185.8741 -372706.9919 309.5249 -14077.1439 -179.6648 2502216.0046 -0.0535 -0.0842
ENERGY: 105000 11024.8110 56038.9071 38773.8929 651.4405 -671489.8305 22282.0068 241.4407 0.0000 168955.9593 -373521.3722 308.9172 -542477.3315 -373076.6133 310.0083 -14025.7722 -116.4593 2498130.9800 3.3041 3.3225
ENERGY: 150000 11128.7849 56103.8556 38664.5293 639.8944 -672526.9818 23301.9634 225.3289 0.0000 169080.7612 -373381.8640 309.1454 -542462.6252 -372955.8155 310.0883 -13845.3675 78.4755 2497152.8839 1.7560 1.7629
ENERGY: 200000 10819.2050 56158.1615 38564.1614 611.3555 -670981.2900 22593.8273 244.8253 0.0000 169244.5555 -372745.1984 309.4449 -541989.7539 -372315.3176 309.7689 -13798.7899 93.2221 2495655.1813 0.0910 0.1080
ENERGY: 250000 11003.6164 56197.4039 38449.6938 619.0511 -671976.7255 22872.7394 236.4922 0.0000 168782.5781 -373815.1506 308.6002 -542597.7287 -373386.7657 310.0205 -13903.7694 10.9558 2498112.0909 2.6402 2.6405
