Info: SIMULATION PARAMETERS:
Info: TIMESTEP               1
Info: NUMBER OF STEPS        0
Info: STEPS PER CYCLE        20
Info: PERIODIC CELL BASIS 1  145.519 0 0
Info: PERIODIC CELL BASIS 2  0 147.305 0
Info: PERIODIC CELL BASIS 3  0 0 118.156
Info: PERIODIC CELL CENTER   39.757 40.344 2.181
Info: WRAPPING ALL CLUSTERS AROUND PERIODIC BOUNDARIES ON OUTPUT.
Info: FIRST LDB TIMESTEP     100
Info: LAST LDB TIMESTEP     -1
Info: HOM BACKGROUND SCALING 1
Info: PME BACKGROUND SCALING 1
Info: REMOVING PATCHES FROM PROCESSOR 0
Info: MIN ATOMS PER PATCH    40
Info: VELOCITY FILE          ../phase2a/dat_equil_phase2a2.restart.vel
Info: CENTER OF MASS MOVING INITIALLY? NO
Info: DIELECTRIC             1
Info: EXCLUDE                SCALED ONE-FOUR
Info: 1-4 ELECTROSTATICS SCALED BY 1
Info: MODIFIED 1-4 VDW PARAMETERS WILL BE USED
Info: DCD FILENAME           ./dat_equil_phase2a3.np.dcd
Info: DCD FREQUENCY          5000
Info: DCD FIRST STEP         5000
Info: DCD FILE WILL CONTAIN UNIT CELL DATA
Info: XST FILENAME           ./dat_equil_phase2a3.np.xst
Info: XST FREQUENCY          5000
Info: NO VELOCITY DCD OUTPUT
Info: NO FORCE DCD OUTPUT
Info: OUTPUT FILENAME        ./dat_equil_phase2a3.np
Info: RESTART FILENAME       ./dat_equil_phase2a3.np.restart
Info: RESTART FREQUENCY      5000
Info: BINARY RESTART FILES WILL BE USED
Info: SWITCHING ACTIVE
Info: SWITCHING ON           10
Info: SWITCHING OFF          12
Info: PAIRLIST DISTANCE      13.5
Info: PAIRLIST SHRINK RATE   0.01
Info: PAIRLIST GROW RATE     0.01
Info: PAIRLIST TRIGGER       0.3
Info: PAIRLISTS PER CYCLE    2
Info: PAIRLISTS ENABLED
Info: MARGIN                 2.5
Info: HYDROGEN GROUP CUTOFF  2.5
Info: PATCH DIMENSION        18.5
Info: ENERGY OUTPUT STEPS    5000
Info: CROSSTERM ENERGY INCLUDED IN DIHEDRAL
Info: TIMING OUTPUT STEPS    5000
Info: PRESSURE OUTPUT STEPS  5000
Info: HARMONIC CONSTRAINTS ACTIVE
Info: HARMONIC CONS EXP      2
Info: LANGEVIN DYNAMICS ACTIVE
Info: LANGEVIN TEMPERATURE   310
Info: LANGEVIN DAMPING COEFFICIENT IS 5 INVERSE PS
Info: LANGEVIN DYNAMICS NOT APPLIED TO HYDROGENS
Info: LANGEVIN PISTON PRESSURE CONTROL ACTIVE
Info:        TARGET PRESSURE IS 1.01325 BAR
Info:     OSCILLATION PERIOD IS 200 FS
Info:             DECAY TIME IS 50 FS
Info:     PISTON TEMPERATURE IS 310 K
Info:       PRESSURE CONTROL IS GROUP-BASED
Info:    INITIAL STRAIN RATE IS 1.38966e-05 1.38966e-05 -1.55106e-05
Info:       CELL FLUCTUATION IS ANISOTROPIC
Info:     SHAPE OF CELL IS CONSTRAINED IN X-Y PLANE
Info: PARTICLE MESH EWALD (PME) ACTIVE
Info: PME TOLERANCE               1e-06
Info: PME EWALD COEFFICIENT       0.257952
Info: PME INTERPOLATION ORDER     4
Info: PME GRID DIMENSIONS         160 160 120
Info: PME MAXIMUM GRID SPACING    1
Info: FULL ELECTROSTATIC EVALUATION FREQUENCY      4
Info: USING VERLET I (r-RESPA) MTS SCHEME.
Info: C1 SPLITTING OF LONG RANGE ELECTROSTATICS
Info: PLACING ATOMS IN PATCHES BY HYDROGEN GROUPS
Info: RIGID BONDS TO HYDROGEN : ALL
Info:         ERROR TOLERANCE : 1e-08
Info:          MAX ITERATIONS : 100
Info: RIGID WATER USING SETTLE ALGORITHM
Info: NONBONDED FORCES EVALUATED EVERY 2 STEPS
Info: RANDOM NUMBER SEED     1404213670
Info: USE HYDROGEN BONDS?    NO
Info: COORDINATE PDB         ../phase2a/dat_equil_phase2a2.coor
Info: STRUCTURE FILE         ../common/ionized.psf
Info: PARAMETER file: CHARMM format!
Info: PARAMETERS             ../common/parameters_all.prm
Info: USING ARITHMETIC MEAN TO COMBINE L-J SIGMA PARAMETERS
Info: BINARY COORDINATES     ../phase2a/dat_equil_phase2a2.restart.coor
Info: SUMMARY OF PARAMETERS:
Info: 231 BONDS
Info: 615 ANGLES
Info: 936 DIHEDRAL
Info: 55 IMPROPER
Info: 6 CROSSTERM
Info: 152 VDW
Info: 0 VDW_PAIRS
Info: 0 NBTHOLE_PAIRS
Info: STRUCTURE SUMMARY:
Info: 256039 ATOMS
Info: 201645 BONDS
Info: 233451 ANGLES
Info: 250328 DIHEDRALS
Info: 2581 IMPROPERS
Info: 0 CROSSTERMS
Info: 0 EXCLUSIONS
Info: 2063 CONSTRAINTS
Info: 217662 RIGID BONDS
Info: 550455 DEGREES OF FREEDOM
Info: 92055 HYDROGEN GROUPS
Info: 4 ATOMS IN LARGEST HYDROGEN GROUP
Info: 92055 MIGRATION GROUPS
Info: 4 ATOMS IN LARGEST MIGRATION GROUP
Info: TOTAL MASS = 1.5284e+06 amu
Info: TOTAL CHARGE = -0.999933 e
Info: MASS DENSITY = 1.00208 g/cm^3
Info: ATOM DENSITY = 0.101091 atoms/A^3
Info: REMOVING COM VELOCITY 0.00911175 -0.0317195 0.00141614
Info: NONBONDED TABLE R-SQUARED SPACING: 0.0625
Info: NONBONDED TABLE SIZE: 769 POINTS
TCL: Running for 250000 steps
ETITLE: TS BOND ANGLE DIHED IMPRP ELECT VDW BOUNDARY MISC KINETIC TOTAL TEMP POTENTIAL TOTAL3 TEMPAVG PRESSURE GPRESSURE VOLUME PRESSAVG GPRESSAVG
ENERGY: 0 11206.4464 56009.9570 38652.1535 667.2464 -670686.2141 23663.3584 257.8983 0.0000 169633.3419 -370595.8121 310.1557 -540229.1540 -370167.4800 310.1557 -13738.3206 -33.7665 2532753.7683 -13738.3206 -33.7665
ENERGY: 50000 10778.2528 56163.2086 38534.6016 644.8022 -670882.2214 22478.4824 246.9804 0.0000 168932.6830 -373103.2104 308.8746 -542035.8934 -372692.8694 309.9990 -13795.5655 72.9119 2501836.2635 4.1011 4.0959
ENERGY: 100000 11025.1824 56090.5924 38634.5212 673.6510 -672004.5165 22575.3696 260.1455 0.0000 168870.8852 -373874.1693 308.7616 -542745.0545 -373422.9559 309.7091 -13953.8377 -42.0851 2495712.7510 0.1942 0.2052
ENERGY: 150000 10828.9843 55960.0693 38509.3879 664.4820 -671919.2908 22389.2305 230.1837 0.0000 168933.2765 -374403.6766 308.8757 -543336.9531 -373958.6567 309.4926 -13846.1531 85.0574 2495671.3550 2.9036 2.9085
ENERGY: 200000 11050.9448 55967.9996 38421.6246 642.8989 -672420.4230 23137.9953 244.7112 0.0000 169333.7864 -373620.4622 309.6080 -542954.2486 -373185.7880 309.6267 -13829.0557 89.4122 2495681.6136 -0.3327 -0.3631
ENERGY: 250000 10976.2984 56308.1171 38489.7702 647.1391 -670979.5353 21596.4322 234.9851 0.0000 169038.6534 -373688.1397 309.0684 -542726.7931 -373262.6500 310.2866 -14072.3786 -192.9990 2499194.8751 3.5547 3.5845
